data/pglib_opf_case2868_rte_storage.m
%%%%%%%%%%%%%%%%%%%%%%%%%%%%%%%%%%%%%%%%%%%%%%%%%%%%%%%%%%%%%%%%%%%%%%%%%%%
%%%%                                                                  %%%%%
%%%%    IEEE PES Power Grid Library - Optimal Power Flow - v23.07     %%%%%
%%%%          (https://github.com/power-grid-lib/pglib-opf)           %%%%%
%%%%               Benchmark Group - Typical Operations               %%%%%
%%%%                         23 - July - 2023                         %%%%%
%%%%                                                                  %%%%%
%%%%%%%%%%%%%%%%%%%%%%%%%%%%%%%%%%%%%%%%%%%%%%%%%%%%%%%%%%%%%%%%%%%%%%%%%%%
%
%CASE2868RTE
%   AC Power flow data for French system.
%   Please see CASEFORMAT for details on the case file format.
%
%   This case accurately represents the size and complexity of French
%   very high voltage transmission network.
%   Part of this data was sampled in the offline platform of iTesla.
%   These data can be used to validate mathematical methods and tools.
%   These data should NOT be used for operation
%   nor planning of the French or European grids.
%
%   When publishing results using this data, please cite:
%     C. Josz, S. Fliscounakis, J. Maeght, and P. Panciatici,
%     "AC Power Flow Data in MATPOWER and QCQP Format: iTesla, RTE Snapshots, and PEGASE"
%     http://arxiv.org/abs/1603.01533
%
%   Contacts (primary contact for this file : Jean Maeght):
%   Cédric Josz, Stéphane Fliscounakis, Jean Maeght, Patrick Panciatici
%   firstname.lastname@rte-france.com
%   Réseau de Transport d'Electricité (French Transmission System Operator)
%   Département Expertise Système, Immeuble "Le Colbert"
%   9 rue de la Porte de Buc, 78000 Versailles Cedex, France
%   March 4th, 2016
%
%   Copyright (c) 2016 by Cédric Josz, Stéphane Fliscounakis, Jean Maeght,
%   and Patrick Panciatici
%   Licensed under the Creative Commons Attribution 4.0 International license,
%   http://creativecommons.org/licenses/by/4.0/
%
% Modified to have additional storage capacity and increased gencost
function mpc = pglib_opf_case2868_rte
mpc.version = '2';
mpc.baseMVA = 100.0;

%% bus data
%	bus_i	type	Pd	Qd	Gs	Bs	area	Vm	Va	baseKV	zone	Vmax	Vmin
mpc.bus = [
	1	 1	 -18.5	 0.0	 0.0	 0.0	 1	    1.00000	    0.00000	 63.0	 1	    1.06349	    0.93651;
	2	 1	 11.8	 0.6	 0.0	 0.0	 1	    0.98889	    0.00000	 225.0	 1	    1.08889	    0.88889;
	3	 1	 0.0	 0.0	 0.0	 0.0	 1	    1.05131	    0.00000	 380.0	 1	    1.10263	    1.00000;
	4	 1	 0.0	 0.0	 0.0	 0.0	 1	    1.00000	    0.00000	 63.0	 1	    1.07937	    0.92063;
	5	 1	 0.2	 -0.2	 0.0	 0.0	 1	    0.94444	    0.00000	 45.0	 1	    1.00000	    0.88889;
	6	 1	 5.6	 -19.0	 0.0	 0.0	 1	    0.94444	    0.00000	 45.0	 1	    1.00000	    0.88889;
	7	 1	 223.6	 7.6	 0.0	 0.0	 1	    1.04222	    0.00000	 225.0	 1	    1.08444	    1.00000;
	8	 1	 68.6	 7.6	 0.0	 0.0	 1	    1.01587	    0.00000	 63.0	 1	    1.06349	    0.96825;
	10	 1	 0.0	 0.0	 0.0	 0.0	 1	    1.00334	    0.00000	 150.0	 1	    1.10667	    0.90000;
	11	 1	 49.1	 0.9	 0.0	 0.0	 1	    1.01111	    0.00000	 225.0	 1	    1.08889	    0.93333;
	2571	 1	 34.0	 14.4	 0.0	 0.0	 1	    1.01111	    0.00000	 225.0	 1	    1.08889	    0.93333;
	12	 1	 0.0	 0.0	 0.0	 0.0	 1	    1.05263	    0.00000	 380.0	 1	    1.10526	    1.00000;
	2572	 1	 0.0	 0.0	 0.0	 0.0	 1	    1.05263	    0.00000	 380.0	 1	    1.10526	    1.00000;
	13	 1	 0.0	 0.0	 0.0	 0.0	 1	    1.04534	    0.00000	 225.0	 1	    1.09067	    1.00000;
	14	 1	 0.2	 -1.1	 0.0	 0.0	 1	    1.00000	    0.00000	 63.0	 1	    1.06349	    0.93651;
	15	 1	 10.3	 -0.2	 0.0	 0.0	 1	    1.00000	    0.00000	 63.0	 1	    1.06349	    0.93651;
	16	 1	 189.8	 54.4	 0.0	 0.0	 1	    1.01111	    0.00000	 225.0	 1	    1.08889	    0.93333;
	17	 1	 54.5	 13.1	 0.0	 0.0	 1	    1.04445	    0.00000	 225.0	 1	    1.08889	    1.00000;
	18	 1	 67.6	 23.2	 0.0	 0.0	 1	    1.04481	    0.00000	 225.0	 1	    1.08962	    1.00000;
	19	 2	 0.0	 0.0	 0.0	 0.0	 1	    1.00362	    0.00000	 63.0	 1	    1.08661	    0.92063;
	20	 1	 150.5	 40.0	 0.0	 0.0	 1	    1.04445	    0.00000	 225.0	 1	    1.08889	    1.00000;
	21	 1	 78.1	 6.2	 0.0	 0.0	 1	    0.98889	    0.00000	 225.0	 1	    1.08889	    0.88889;
	22	 1	 15.0	 -9.4	 0.0	 0.0	 1	    1.00450	    0.00000	 63.0	 1	    1.07249	    0.93651;
	23	 1	 50.9	 6.0	 0.0	 0.0	 1	    1.00000	    0.00000	 63.0	 1	    1.06349	    0.93651;
	24	 1	 0.0	 0.0	 0.0	 0.0	 1	    1.04445	    0.00000	 225.0	 1	    1.08889	    1.00000;
	2573	 1	 0.0	 0.0	 0.0	 0.0	 1	    1.04445	    0.00000	 225.0	 1	    1.08889	    1.00000;
	25	 1	 65.1	 1.6	 0.0	 0.0	 1	    0.98889	    0.00000	 225.0	 1	    1.08889	    0.88889;
	26	 1	 1.6	 -4.2	 0.0	 0.0	 1	    1.04158	    0.00000	 225.0	 1	    1.09649	    0.98667;
	27	 1	 42.8	 2.3	 0.0	 0.0	 1	    1.00000	    0.00000	 63.0	 1	    1.06349	    0.93651;
	28	 1	 39.4	 15.5	 0.0	 0.0	 1	    1.04445	    0.00000	 225.0	 1	    1.08889	    1.00000;
	2574	 1	 42.2	 12.4	 0.0	 0.0	 1	    1.04445	    0.00000	 225.0	 1	    1.08889	    1.00000;
	29	 1	 11.4	 0.5	 0.0	 0.0	 1	    1.00000	    0.00000	 63.0	 1	    1.06349	    0.93651;
	30	 1	 72.7	 36.5	 0.0	 0.0	 1	    1.04445	    0.00000	 225.0	 1	    1.08889	    1.00000;
	31	 1	 2.7	 -1.4	 0.0	 0.0	 1	    1.00431	    0.00000	 63.0	 1	    1.07211	    0.93651;
	32	 1	 13.8	 -0.4	 0.0	 0.0	 1	    1.00000	    0.00000	 63.0	 1	    1.06349	    0.93651;
	33	 1	 2.0	 -0.5	 0.0	 0.0	 1	    0.94444	    0.00000	 45.0	 1	    1.00000	    0.88889;
	34	 1	 0.4	 0.0	 0.0	 0.0	 1	    0.94444	    0.00000	 45.0	 1	    1.00000	    0.88889;
	35	 1	 30.4	 3.0	 0.0	 0.0	 1	    1.01587	    0.00000	 63.0	 1	    1.06349	    0.96825;
	36	 1	 1.9	 -3.1	 0.0	 0.0	 1	    0.94444	    0.00000	 45.0	 1	    1.00000	    0.88889;
	37	 1	 18.9	 0.9	 0.0	 0.0	 1	    1.00000	    0.00000	 63.0	 1	    1.06349	    0.93651;
	38	 2	 0.0	 0.0	 0.0	 0.0	 1	    1.01588	    0.00000	 63.0	 1	    1.07937	    0.95238;
	39	 1	 99.3	 18.8	 0.0	 0.0	 1	    1.03800	    0.00000	 225.0	 1	    1.08934	    0.98667;
	40	 1	 38.7	 0.9	 0.0	 0.0	 1	    0.98889	    0.00000	 225.0	 1	    1.08889	    0.88889;
	41	 1	 89.8	 13.0	 0.0	 0.0	 1	    1.04222	    0.00000	 225.0	 1	    1.08444	    1.00000;
	42	 1	 63.9	 9.7	 0.0	 0.0	 1	    1.00010	    0.00000	 63.0	 1	    1.06370	    0.93651;
	43	 1	 0.0	 0.0	 0.0	 0.0	 1	    1.01111	    0.00000	 225.0	 1	    1.08889	    0.93333;
	44	 1	 33.1	 -6.5	 0.0	 0.0	 1	    1.01587	    0.00000	 63.0	 1	    1.06349	    0.96825;
	45	 1	 168.4	 34.9	 0.0	 0.0	 1	    1.04445	    0.00000	 225.0	 1	    1.08889	    1.00000;
	46	 1	 0.0	 0.0	 0.0	 0.0	 1	    1.05263	    0.00000	 380.0	 1	    1.10526	    1.00000;
	2575	 1	 0.0	 0.0	 0.0	 0.0	 1	    1.05263	    0.00000	 380.0	 1	    1.10526	    1.00000;
	47	 1	 29.5	 4.5	 0.0	 0.0	 1	    1.00128	    0.00000	 63.0	 1	    1.06606	    0.93651;
	48	 1	 1.6	 0.0	 0.0	 0.0	 1	    1.00193	    0.00000	 63.0	 1	    1.06735	    0.93651;
	49	 1	 14.9	 10.4	 0.0	 0.0	 1	    1.01587	    0.00000	 63.0	 1	    1.06349	    0.96825;
	2576	 1	 9.9	 7.2	 0.0	 0.0	 1	    1.01587	    0.00000	 63.0	 1	    1.06349	    0.96825;
	50	 1	 0.0	 0.0	 0.0	 0.0	 1	    1.04222	    0.00000	 225.0	 1	    1.08444	    1.00000;
	51	 1	 114.9	 20.2	 0.0	 0.0	 1	    1.04222	    0.00000	 225.0	 1	    1.08444	    1.00000;
	52	 1	 0.0	 0.0	 0.0	 0.0	 1	    1.04445	    0.00000	 225.0	 1	    1.08889	    1.00000;
	2942	 1	 106.0	 29.6	 0.0	 0.0	 1	    1.04445	    0.00000	 225.0	 1	    1.08889	    1.00000;
	53	 2	 5.7	 -6.6	 0.0	 0.0	 1	    1.01587	    0.00000	 63.0	 1	    1.06349	    0.96825;
	54	 1	 0.0	 0.0	 0.0	 0.0	 1	    1.02333	    0.00000	 150.0	 1	    1.08000	    0.96667;
	55	 1	 65.6	 18.0	 0.0	 80.0	 1	    1.04730	    0.00000	 225.0	 1	    1.09459	    1.00000;
	56	 1	 0.0	 0.0	 0.0	 0.0	 1	    1.05263	    0.00000	 380.0	 1	    1.10526	    1.00000;
	57	 1	 146.4	 39.1	 0.0	 0.0	 1	    1.03778	    0.00000	 225.0	 1	    1.08889	    0.98667;
	59	 1	 78.7	 21.1	 0.0	 0.0	 1	    1.02889	    0.00000	 225.0	 1	    1.08889	    0.96889;
	60	 1	 125.2	 37.6	 0.0	 0.0	 1	    1.05263	    0.00000	 380.0	 1	    1.10526	    1.00000;
	61	 1	 6.0	 1.0	 0.0	 0.0	 1	    1.00000	    0.00000	 63.0	 1	    1.06349	    0.93651;
	63	 1	 36.1	 4.7	 0.0	 7.7	 1	    1.01587	    0.00000	 63.0	 1	    1.06349	    0.96825;
	2577	 1	 0.0	 0.0	 0.0	 0.0	 1	    1.01587	    0.00000	 63.0	 1	    1.06349	    0.96825;
	64	 1	 53.3	 13.4	 0.0	 0.0	 1	    1.01111	    0.00000	 225.0	 1	    1.08889	    0.93333;
	65	 1	 0.0	 0.0	 0.0	 0.0	 1	    1.01587	    0.00000	 63.0	 1	    1.06349	    0.96825;
	66	 1	 43.4	 -0.7	 0.0	 0.0	 1	    0.94444	    0.00000	 45.0	 1	    1.00000	    0.88889;
	2578	 2	 0.0	 0.0	 0.0	 0.0	 1	    0.94444	    0.00000	 45.0	 1	    1.00000	    0.88889;
	67	 1	 41.3	 12.8	 0.0	 0.0	 1	    0.98889	    0.00000	 225.0	 1	    1.08889	    0.88889;
	2579	 1	 38.5	 8.5	 0.0	 0.0	 1	    0.98889	    0.00000	 225.0	 1	    1.08889	    0.88889;
	68	 1	 19.6	 3.7	 0.0	 0.0	 1	    1.00000	    0.00000	 20.0	 1	    1.20000	    0.80000;
	69	 1	 320.7	 74.9	 0.0	 0.0	 1	    1.04343	    0.00000	 225.0	 1	    1.08685	    1.00000;
	70	 1	 140.9	 -22.3	 0.0	 0.0	 1	    1.04445	    0.00000	 225.0	 1	    1.08889	    1.00000;
	71	 2	 0.0	 0.0	 0.0	 0.0	 1	    1.00442	    0.00000	 150.0	 1	    1.10885	    0.90000;
	72	 1	 0.0	 0.0	 0.0	 0.0	 1	    1.04445	    0.00000	 225.0	 1	    1.08889	    1.00000;
	2580	 1	 0.0	 0.0	 0.0	 0.0	 1	    1.04445	    0.00000	 225.0	 1	    1.08889	    1.00000;
	74	 1	 0.0	 0.0	 0.0	 0.0	 1	    1.04445	    0.00000	 225.0	 1	    1.08889	    1.00000;
	75	 1	 15.6	 3.0	 0.0	 0.0	 1	    1.00000	    0.00000	 63.0	 1	    1.06349	    0.93651;
	76	 2	 0.0	 0.0	 0.0	 0.0	 1	    0.94444	    0.00000	 45.0	 1	    1.00000	    0.88889;
	77	 1	 6.4	 0.3	 0.0	 0.0	 1	    1.00272	    0.00000	 63.0	 1	    1.08481	    0.92063;
	78	 1	 4.8	 2.4	 0.0	 0.0	 1	    1.04445	    0.00000	 225.0	 1	    1.08889	    1.00000;
	79	 1	 17.4	 1.7	 0.0	 15.0	 1	    1.00000	    0.00000	 63.0	 1	    1.07937	    0.92063;
	80	 1	 10.0	 -0.6	 0.0	 0.0	 1	    1.00404	    0.00000	 63.0	 1	    1.08744	    0.92063;
	81	 1	 0.0	 0.0	 0.0	 0.0	 1	    1.04445	    0.00000	 225.0	 1	    1.08889	    1.00000;
	82	 1	 63.1	 25.3	 0.0	 0.0	 1	    0.98889	    0.00000	 225.0	 1	    1.08889	    0.88889;
	83	 1	 44.1	 1.9	 0.0	 0.0	 1	    1.01544	    0.00000	 63.0	 1	    1.06349	    0.96740;
	84	 1	 162.3	 51.1	 0.0	 0.0	 1	    1.02889	    0.00000	 225.0	 1	    1.08889	    0.96889;
	85	 1	 0.0	 0.0	 0.0	 0.0	 1	    1.05263	    0.00000	 380.0	 1	    1.10526	    1.00000;
	86	 1	 58.3	 14.1	 0.0	 0.0	 1	    1.01587	    0.00000	 63.0	 1	    1.06349	    0.96825;
	87	 1	 32.5	 4.6	 0.0	 0.0	 1	    1.01587	    0.00000	 63.0	 1	    1.06349	    0.96825;
	88	 1	 1.5	 0.7	 0.0	 0.0	 1	    1.01587	    0.00000	 63.0	 1	    1.06349	    0.96825;
	89	 1	 55.7	 8.3	 0.0	 0.0	 1	    1.01587	    0.00000	 63.0	 1	    1.06349	    0.96825;
	2581	 1	 30.1	 12.2	 0.0	 0.0	 1	    1.01587	    0.00000	 63.0	 1	    1.06349	    0.96825;
	90	 1	 0.0	 0.0	 0.0	 0.0	 1	    1.04222	    0.00000	 225.0	 1	    1.08444	    1.00000;
	2582	 1	 0.0	 0.0	 0.0	 0.0	 1	    1.04222	    0.00000	 225.0	 1	    1.08444	    1.00000;
	91	 1	 190.1	 8.0	 0.0	 0.0	 1	    1.04445	    0.00000	 225.0	 1	    1.08889	    1.00000;
	92	 1	 36.8	 -8.5	 0.0	 0.0	 1	    1.01187	    0.00000	 225.0	 1	    1.09041	    0.93333;
	93	 2	 0.0	 0.0	 0.0	 0.0	 1	    1.00453	    0.00000	 150.0	 1	    1.10907	    0.90000;
	94	 1	 35.7	 55.7	 0.0	 0.0	 1	    1.04222	    0.00000	 225.0	 1	    1.08444	    1.00000;
	2583	 1	 34.0	 3.2	 0.0	 0.0	 1	    1.04222	    0.00000	 225.0	 1	    1.08444	    1.00000;
	95	 1	 0.0	 0.0	 0.0	 0.0	 1	    1.03333	    0.00000	 225.0	 1	    1.08889	    0.97778;
	96	 1	 15.9	 4.1	 0.0	 0.0	 1	    0.98889	    0.00000	 225.0	 1	    1.08889	    0.88889;
	97	 1	 40.4	 6.5	 0.0	 0.0	 1	    1.01587	    0.00000	 63.0	 1	    1.06349	    0.96825;
	98	 1	 -3.5	 -1.6	 0.0	 0.0	 1	    1.01111	    0.00000	 225.0	 1	    1.08889	    0.93333;
	99	 1	 18.2	 5.5	 0.0	 0.0	 1	    1.04445	    0.00000	 225.0	 1	    1.08889	    1.00000;
	2584	 1	 33.2	 14.1	 0.0	 0.0	 1	    1.04445	    0.00000	 225.0	 1	    1.08889	    1.00000;
	100	 1	 -17.2	 -4.3	 0.0	 0.0	 1	    1.04445	    0.00000	 225.0	 1	    1.08889	    1.00000;
	101	 1	 24.4	 1.9	 0.0	 0.0	 1	    1.03778	    0.00000	 225.0	 1	    1.08889	    0.98667;
	102	 1	 0.0	 0.0	 0.0	 80.0	 1	    0.98889	    0.00000	 225.0	 1	    1.08889	    0.88889;
	2585	 1	 0.0	 0.0	 0.0	 0.0	 1	    0.98889	    0.00000	 225.0	 1	    1.08889	    0.88889;
	103	 1	 0.0	 0.0	 0.0	 0.0	 1	    1.05263	    0.00000	 380.0	 1	    1.10526	    1.00000;
	104	 1	 74.9	 14.3	 0.0	 0.0	 1	    1.04445	    0.00000	 225.0	 1	    1.08889	    1.00000;
	2586	 1	 29.0	 6.8	 0.0	 0.0	 1	    1.04445	    0.00000	 225.0	 1	    1.08889	    1.00000;
	105	 1	 11.4	 9.2	 0.0	 0.0	 1	    1.00000	    0.00000	 63.0	 1	    1.07937	    0.92063;
	106	 1	 0.0	 0.0	 0.0	 0.0	 1	    1.03333	    0.00000	 225.0	 1	    1.08889	    0.97778;
	2587	 1	 0.0	 0.0	 0.0	 0.0	 1	    1.03333	    0.00000	 225.0	 1	    1.08889	    0.97778;
	107	 1	 5.7	 10.3	 0.0	 0.0	 1	    1.01587	    0.00000	 63.0	 1	    1.06349	    0.96825;
	108	 1	 54.1	 1.9	 0.0	 0.0	 1	    1.04222	    0.00000	 225.0	 1	    1.08444	    1.00000;
	109	 1	 0.0	 0.0	 0.0	 0.0	 1	    1.04222	    0.00000	 225.0	 1	    1.08444	    1.00000;
	110	 1	 0.0	 0.0	 0.0	 0.0	 1	    1.05131	    0.00000	 380.0	 1	    1.10263	    1.00000;
	111	 1	 103.3	 18.0	 0.0	 0.0	 1	    1.04222	    0.00000	 225.0	 1	    1.08444	    1.00000;
	112	 1	 -1.5	 2.2	 0.0	 0.0	 1	    1.04517	    0.00000	 225.0	 1	    1.09035	    1.00000;
	2588	 1	 16.5	 -0.1	 0.0	 0.0	 1	    1.04517	    0.00000	 225.0	 1	    1.09035	    1.00000;
	113	 1	 47.0	 9.8	 0.0	 0.0	 1	    0.98889	    0.00000	 225.0	 1	    1.08889	    0.88889;
	114	 1	 43.8	 0.6	 0.0	 0.0	 1	    1.00000	    0.00000	 63.0	 1	    1.06349	    0.93651;
	115	 1	 16.4	 1.2	 0.0	 0.0	 1	    0.98889	    0.00000	 225.0	 1	    1.08889	    0.88889;
	116	 1	 56.9	 18.9	 0.0	 0.0	 1	    0.98889	    0.00000	 225.0	 1	    1.08889	    0.88889;
	117	 1	 3.2	 0.4	 0.0	 0.0	 1	    1.01587	    0.00000	 63.0	 1	    1.06349	    0.96825;
	118	 1	 44.0	 10.0	 0.0	 0.0	 1	    1.00000	    0.00000	 63.0	 1	    1.07937	    0.92063;
	119	 1	 28.5	 -5.1	 0.0	 0.0	 1	    1.01587	    0.00000	 63.0	 1	    1.06349	    0.96825;
	120	 2	 0.0	 0.0	 0.0	 0.0	 1	    1.00257	    0.00000	 63.0	 1	    1.06863	    0.93651;
	121	 1	 8.5	 3.1	 0.0	 0.0	 1	    1.01587	    0.00000	 63.0	 1	    1.06349	    0.96825;
	2589	 1	 15.0	 6.8	 0.0	 0.0	 1	    1.01587	    0.00000	 63.0	 1	    1.06349	    0.96825;
	122	 1	 142.7	 -26.6	 0.0	 0.0	 1	    1.04445	    0.00000	 225.0	 1	    1.08889	    1.00000;
	123	 1	 32.4	 7.9	 0.0	 0.0	 1	    1.00000	    0.00000	 63.0	 1	    1.07937	    0.92063;
	124	 2	 4.7	 -2.0	 0.0	 0.0	 1	    1.00133	    0.00000	 63.0	 1	    1.08203	    0.92063;
	125	 1	 0.0	 0.0	 0.0	 0.0	 1	    1.00000	    0.00000	 63.0	 1	    1.07937	    0.92063;
	126	 1	 0.0	 0.0	 0.0	 0.0	 1	    1.04445	    0.00000	 225.0	 1	    1.08889	    1.00000;
	127	 1	 0.0	 0.0	 0.0	 0.0	 1	    1.05263	    0.00000	 380.0	 1	    1.10526	    1.00000;
	128	 1	 26.4	 3.8	 0.0	 0.0	 1	    1.00000	    0.00000	 63.0	 1	    1.06349	    0.93651;
	129	 2	 16.3	 7.5	 0.0	 0.0	 1	    1.00000	    0.00000	 63.0	 1	    1.06349	    0.93651;
	130	 1	 10.9	 16.3	 0.0	 0.0	 1	    1.00000	    0.00000	 63.0	 1	    1.07937	    0.92063;
	2955	 1	 0.0	 0.0	 0.0	 0.0	 1	    1.00000	    0.00000	 63.0	 1	    1.07937	    0.92063;
	131	 1	 0.0	 0.0	 0.0	 0.0	 1	    1.04445	    0.00000	 225.0	 1	    1.08889	    1.00000;
	132	 1	 139.1	 40.0	 0.0	 0.0	 1	    1.04445	    0.00000	 225.0	 1	    1.08889	    1.00000;
	133	 2	 9.2	 3.6	 0.0	 0.0	 1	    1.01682	    0.00000	 63.0	 1	    1.06538	    0.96825;
	134	 2	 0.0	 0.0	 0.0	 0.0	 1	    1.02333	    0.00000	 150.0	 1	    1.08000	    0.96667;
	135	 2	 -14.9	 -4.8	 0.0	 0.0	 1	    1.00000	    0.00000	 63.0	 1	    1.07937	    0.92063;
	136	 1	 31.7	 10.2	 0.0	 0.0	 1	    1.03778	    0.00000	 225.0	 1	    1.08889	    0.98667;
	137	 1	 9.7	 -2.1	 0.0	 0.0	 1	    1.01587	    0.00000	 63.0	 1	    1.06349	    0.96825;
	138	 1	 12.8	 5.8	 0.0	 0.0	 1	    1.04222	    0.00000	 225.0	 1	    1.08444	    1.00000;
	140	 1	 0.0	 0.0	 0.0	 0.0	 1	    1.05263	    0.00000	 380.0	 1	    1.10526	    1.00000;
	2590	 1	 0.0	 0.0	 0.0	 0.0	 1	    1.05263	    0.00000	 380.0	 1	    1.10526	    1.00000;
	141	 1	 20.8	 1.1	 0.0	 0.0	 1	    1.04445	    0.00000	 225.0	 1	    1.08889	    1.00000;
	142	 1	 10.3	 9.6	 0.0	 0.0	 1	    1.04445	    0.00000	 225.0	 1	    1.08889	    1.00000;
	143	 1	 28.7	 2.3	 0.0	 0.0	 1	    1.01587	    0.00000	 63.0	 1	    1.06349	    0.96825;
	144	 1	 82.9	 11.1	 0.0	 0.0	 1	    1.00000	    0.00000	 150.0	 1	    1.10000	    0.90000;
	145	 1	 72.9	 0.2	 0.0	 0.0	 1	    1.04462	    0.00000	 225.0	 1	    1.08925	    1.00000;
	146	 2	 -3.7	 -0.5	 0.0	 0.0	 1	    1.04445	    0.00000	 225.0	 1	    1.08889	    1.00000;
	147	 1	 0.0	 0.0	 0.0	 0.0	 1	    1.01111	    0.00000	 225.0	 1	    1.08889	    0.93333;
	148	 1	 0.0	 0.0	 0.0	 0.0	 1	    1.05263	    0.00000	 380.0	 1	    1.10526	    1.00000;
	2591	 1	 0.0	 0.0	 0.0	 0.0	 1	    1.05263	    0.00000	 380.0	 1	    1.10526	    1.00000;
	149	 1	 0.0	 0.0	 0.0	 0.0	 1	    1.04445	    0.00000	 225.0	 1	    1.08889	    1.00000;
	2592	 1	 66.1	 19.5	 0.0	 0.0	 1	    1.04445	    0.00000	 225.0	 1	    1.08889	    1.00000;
	150	 1	 0.0	 0.0	 0.0	 0.0	 1	    1.03778	    0.00000	 225.0	 1	    1.08889	    0.98667;
	151	 1	 24.0	 9.7	 0.0	 0.0	 1	    1.04445	    0.00000	 225.0	 1	    1.08889	    1.00000;
	153	 1	 137.1	 23.1	 0.0	 0.0	 1	    1.01111	    0.00000	 225.0	 1	    1.08889	    0.93333;
	154	 1	 0.0	 0.0	 0.0	 0.0	 1	    1.05263	    0.00000	 380.0	 1	    1.10526	    1.00000;
	155	 1	 55.3	 18.4	 0.0	 0.0	 1	    1.04445	    0.00000	 225.0	 1	    1.08889	    1.00000;
	156	 1	 30.9	 4.2	 0.0	 0.0	 1	    1.00077	    0.00000	 63.0	 1	    1.06503	    0.93651;
	157	 1	 2.4	 0.4	 0.0	 0.0	 1	    1.01587	    0.00000	 63.0	 1	    1.06349	    0.96825;
	158	 1	 27.5	 2.2	 0.0	 0.0	 1	    1.00000	    0.00000	 63.0	 1	    1.07937	    0.92063;
	159	 1	 24.3	 1.9	 0.0	 0.0	 1	    1.01587	    0.00000	 63.0	 1	    1.06349	    0.96825;
	160	 1	 5.6	 3.0	 0.0	 0.0	 1	    1.00000	    0.00000	 63.0	 1	    1.06349	    0.93651;
	161	 2	 0.0	 0.0	 0.0	 0.0	 1	    0.97500	    0.00000	 63.0	 1	    1.15000	    0.80000;
	162	 1	 0.5	 -40.5	 0.0	 0.0	 1	    1.04527	    0.00000	 225.0	 1	    1.09053	    1.00000;
	163	 1	 0.0	 0.0	 0.0	 0.0	 1	    1.01587	    0.00000	 63.0	 1	    1.06349	    0.96825;
	164	 1	 109.3	 -1.7	 0.0	 0.0	 1	    1.04895	    0.00000	 225.0	 1	    1.09791	    1.00000;
	165	 1	 187.3	 17.6	 0.0	 0.0	 1	    1.03778	    0.00000	 225.0	 1	    1.08889	    0.98667;
	166	 1	 51.6	 6.2	 0.0	 0.0	 1	    1.01587	    0.00000	 63.0	 1	    1.06349	    0.96825;
	167	 1	 119.3	 36.7	 0.0	 0.0	 1	    1.04534	    0.00000	 225.0	 1	    1.09067	    1.00000;
	168	 1	 14.1	 -5.7	 0.0	 0.0	 1	    1.00000	    0.00000	 63.0	 1	    1.06349	    0.93651;
	169	 1	 24.1	 -4.6	 0.0	 0.0	 1	    1.01587	    0.00000	 63.0	 1	    1.06349	    0.96825;
	170	 1	 1.8	 0.3	 0.0	 0.0	 1	    1.00236	    0.00000	 63.0	 1	    1.06822	    0.93651;
	171	 1	 181.5	 51.4	 0.0	 0.0	 1	    1.00667	    0.00000	 225.0	 1	    1.08889	    0.92444;
	172	 2	 -0.0	 1.2	 0.0	 0.0	 1	    1.01587	    0.00000	 63.0	 1	    1.06349	    0.96825;
	173	 1	 82.5	 15.9	 0.0	 0.0	 1	    1.04141	    0.00000	 225.0	 1	    1.09616	    0.98667;
	174	 1	 0.0	 0.0	 0.0	 0.0	 1	    1.05263	    0.00000	 380.0	 1	    1.10526	    1.00000;
	2998	 1	 0.0	 0.0	 0.0	 0.0	 1	    1.05263	    0.00000	 380.0	 1	    1.10526	    1.00000;
	175	 1	 120.7	 -49.6	 0.0	 0.0	 1	    1.04222	    0.00000	 225.0	 1	    1.08444	    1.00000;
	177	 1	 0.0	 0.0	 0.0	 0.0	 1	    1.01217	    0.00000	 63.0	 1	    1.06349	    0.96086;
	178	 1	 0.0	 0.0	 0.0	 0.0	 1	    1.04222	    0.00000	 225.0	 1	    1.08444	    1.00000;
	179	 1	 0.0	 0.0	 0.0	 0.0	 1	    1.05131	    0.00000	 380.0	 1	    1.10263	    1.00000;
	180	 1	 5.0	 0.6	 0.0	 0.0	 1	    1.01111	    0.00000	 225.0	 1	    1.08889	    0.93333;
	181	 1	 -3.0	 -14.3	 0.0	 0.0	 1	    0.95270	    0.00000	 45.0	 1	    1.01652	    0.88889;
	182	 1	 0.0	 0.0	 0.0	 0.0	 1	    1.00000	    0.00000	 63.0	 1	    1.06349	    0.93651;
...
];

%% generator data
%	bus	Pg	Qg	Qmax	Qmin	Vg	mBase	status	Pmax	Pmin
mpc.gen = [
	1279	 0.0	 0.0	 15.0	 -15.0	 1.044445	 100.0	 0	 35.0	 7.0; % PEL
	1210	 21.66	 2.5	 20.0	 -15.0	 1.0	 100.0	 1	 36.1	 7.22; % PEL
	751	 27.6	 6.0	 21.0	 -9.0	 1.0158755	 100.0	 1	 46.0	 9.2; % NG
	2777	 2.0	 0.0	 0.1	 -0.1	 1.0	 100.0	 1	 4.0	 0.0; % NG
	2777	 4.2	 0.95	 1.0	 0.9	 1.0	 100.0	 1	 7.0	 1.4; % NG
	978	 7.2	 -1.5	 4.0	 -7.0	 1.0	 100.0	 1	 12.0	 2.4; % NG
	158	 1.35	 0.0	 0.0	 0.0	 1.0000025	 100.0	 1	 2.7	 0.0; % PEL
	1217	 7.8	 0.0	 5.0	 -5.0	 1.022612	 100.0	 1	 13.0	 2.6; % COW
	367	 30.0	 9.0	 27.0	 -9.0	 1.0	 100.0	 1	 50.0	 10.0; % NG
	1127	 9.6	 0.0	 0.0	 0.0	 1.015872	 100.0	 1	 16.0	 3.2; % PEL
	460	 0.0	 0.0	 40.0	 -40.0	 1.04643	 100.0	 0	 62.0	 12.4; % NG
	968	 10.8	 0.0	 10.0	 -10.0	 1.0000025	 100.0	 1	 18.0	 3.6; % PEL
	1827	 13.2	 -2.5	 7.0	 -12.0	 1.033334	 100.0	 1	 22.0	 4.4; % NG
	1466	 20.5	 -5.0	 5.0	 -15.0	 1.0	 100.0	 1	 40.0	 1.0; % NG
	2863	 20.5	 0.0	 6.0	 -6.0	 1.0	 100.0	 1	 40.0	 1.0; % NG
	1466	 20.5	 -5.0	 5.0	 -15.0	 1.0	 100.0	 1	 40.0	 1.0; % NG
	2863	 20.5	 0.0	 6.0	 -6.0	 1.0	 100.0	 1	 40.0	 1.0; % COW
	1072	 0.0	 0.0	 1.0	 0.9	 1.00445	 100.0	 0	 12.0	 2.4; % NG
	1072	 0.0	 0.0	 1.0	 0.9	 1.00445	 100.0	 0	 14.0	 2.8; % NG
	1072	 0.0	 0.0	 1.0	 0.9	 1.00445	 100.0	 0	 12.0	 2.4; % NG
	642	 6.2	 0.0	 3.0	 -3.0	 1.021212	 100.0	 1	 10.33	 2.07; % NG
	642	 6.2	 0.0	 3.0	 -3.0	 1.021212	 100.0	 1	 10.33	 2.07; % NG
	542	 27.5	 6.0	 22.0	 -10.0	 1.015872	 100.0	 1	 50.0	 5.0; % NG
	773	 7.2	 0.0	 0.0	 0.0	 1.0000025	 100.0	 1	 12.0	 2.4; % NG
	399	 8.28	 0.0	 0.0	 0.0	 1.015872	 100.0	 1	 13.8	 2.76; % NG
	399	 0.6	 0.0	 0.0	 0.0	 1.015872	 100.0	 1	 1.2	 0.0; % PEL
	21	 14.4	 0.0	 0.0	 0.0	 0.9888895	 100.0	 1	 24.0	 4.8; % NG
	21	 16.56	 0.0	 0.0	 0.0	 0.9888895	 100.0	 1	 27.6	 5.52; % PEL
	899	 10.8	 0.0	 0.0	 0.0	 1.000709	 100.0	 1	 18.0	 3.6; % PEL
	899	 12.6	 0.0	 0.0	 0.0	 1.000709	 100.0	 1	 21.0	 4.2; % PEL
	2618	 3.6	 0.0	 0.0	 0.0	 0.999999	 100.0	 1	 6.0	 1.2; % NG
	2618	 22.5	 2.0	 10.0	 -6.0	 0.999999	 100.0	 1	 37.5	 7.5; % PEL
	285	 3.6	 0.0	 0.0	 0.0	 0.999999	 100.0	 1	 6.0	 1.2; % PEL
	285	 22.5	 2.0	 10.0	 -6.0	 0.999999	 100.0	 1	 37.5	 7.5; % PEL
	135	 7.8	 -0.5	 5.0	 -6.0	 1.0000025	 100.0	 1	 13.0	 2.6; % NG
	53	 10.8	 0.0	 0.8	 -0.8	 1.015872	 100.0	 1	 18.0	 3.6; % NG
	53	 10.8	 0.0	 0.8	 -0.8	 1.015872	 100.0	 1	 18.0	 3.6; % NG
	596	 2.0	 0.0	 0.0	 0.0	 1.04598	 100.0	 1	 4.0	 0.0; % NG
	958	 2.3	 0.0	 0.0	 0.0	 0.975	 100.0	 1	 4.6	 0.0; % NG
	1679	 12.6	 1.0	 6.0	 -4.0	 1.0	 100.0	 1	 21.0	 4.2; % NG
	1679	 12.6	 1.1	 6.7	 -4.5	 1.0	 100.0	 1	 21.0	 4.2; % NG
	1157	 4.32	 0.0	 0.0	 0.0	 1.015872	 100.0	 1	 7.2	 1.44; % NG
	513	 0.0	 0.0	 5.0	 1.0	 1.0	 100.0	 0	 11.0	 2.2; % PEL
	513	 0.0	 0.0	 5.0	 1.0	 1.0	 100.0	 0	 11.0	 2.2; % NG
	371	 4.8	 0.0	 5.0	 -5.0	 0.999999	 100.0	 1	 8.0	 1.6; % PEL
	371	 4.8	 0.0	 5.0	 -5.0	 0.999999	 100.0	 1	 8.0	 1.6; % NG
	976	 21.0	 -1.5	 12.0	 -15.0	 1.015872	 100.0	 1	 35.0	 7.0; % NG
	976	 21.0	 -1.5	 12.0	 -15.0	 1.015872	 100.0	 1	 35.0	 7.0; % PEL
	2754	 6.9	 0.0	 0.0	 0.0	 1.019477	 100.0	 1	 11.5	 2.3; % NG
	749	 0.0	 0.0	 5.0	 -5.0	 0.9444445	 100.0	 0	 8.5	 1.7; % NG
	1188	 12.0	 1.95	 2.0	 1.9	 1.004635	 100.0	 1	 20.0	 4.0; % PEL
	1254	 14.4	 0.0	 7.0	 -7.0	 1.001289	 100.0	 1	 24.0	 4.8; % PEL
	252	 6.6	 1.5	 8.0	 -5.0	 0.9444445	 100.0	 1	 11.0	 2.2; % NG
	252	 5.4	 0.5	 6.0	 -5.0	 0.9444445	 100.0	 1	 9.0	 1.8; % NG
	252	 6.6	 1.5	 8.0	 -5.0	 0.9444445	 100.0	 1	 11.0	 2.2; % NG
	252	 5.4	 0.5	 6.0	 -5.0	 0.9444445	 100.0	 1	 9.0	 1.8; % NG
	504	 7.44	 0.0	 6.5	 -6.5	 0.9445145	 100.0	 1	 12.4	 2.48; % NG
	115	 15.18	 0.0	 0.0	 0.0	 0.9888895	 100.0	 1	 25.3	 5.06; % NG
	967	 1.15	 0.0	 0.0	 0.0	 1.0000025	 100.0	 1	 2.3	 0.0; % PEL
	1811	 5.4	 0.0	 5.5	 -5.5	 1.003809	 100.0	 1	 9.0	 1.8; % NG
	2634	 8.4	 0.0	 7.0	 -7.0	 1.0000025	 100.0	 1	 14.0	 2.8; % COW
	326	 8.4	 0.0	 7.0	 -7.0	 1.0000025	 100.0	 1	 14.0	 2.8; % PEL
	1829	 7.68	 0.0	 7.7	 -7.7	 0.999999	 100.0	 1	 12.8	 2.56; % PEL
	1314	 23.4	 0.0	 19.0	 -19.0	 1.005695	 100.0	 1	 39.0	 7.8; % NG
	71	 18.0	 3.0	 10.0	 -4.0	 1.004425	 100.0	 1	 30.0	 6.0; % PEL
	93	 0.0	 0.0	 2.0	 1.9	 1.004535	 100.0	 0	 6.0	 1.2; % NG
	129	 6.6	 0.0	 4.0	 -4.0	 0.999999	 100.0	 1	 11.0	 2.2; % COW
	1594	 7.2	 0.0	 5.0	 -5.0	 1.021962	 100.0	 1	 12.0	 2.4; % NG
	1594	 7.2	 0.0	 5.0	 -5.0	 1.021962	 100.0	 1	 12.0	 2.4; % NG
	1354	 2.5	 0.0	 2.0	 -2.0	 1.015872	 100.0	 1	 5.0	 0.0; % NG
	1133	 10.35	 0.0	 0.0	 0.0	 1.015872	 100.0	 1	 17.25	 3.45; % NG
	1405	 22.68	 2.0	 12.0	 -8.0	 1.0	 100.0	 1	 37.8	 7.56; % NG
	2850	 22.68	 2.0	 12.0	 -8.0	 1.0	 100.0	 1	 37.8	 7.56; % NG
	2849	 22.68	 2.0	 12.0	 -8.0	 1.0	 100.0	 1	 37.8	 7.56; % NG
	1122	 4.14	 0.0	 0.0	 0.0	 1.015872	 100.0	 1	 6.9	 1.38; % NG
	1708	 44.5	 9.0	 27.0	 -9.0	 1.0377785	 100.0	 1	 45.0	 44.0; % NG
	1708	 44.5	 9.0	 27.0	 -9.0	 1.0377785	 100.0	 1	 45.0	 44.0; % NG
	1658	 17.94	 0.0	 0.0	 0.0	 1.0000025	 100.0	 1	 29.9	 5.98; % NG
	2884	 8.22	 0.0	 0.0	 0.0	 1.0000025	 100.0	 1	 13.7	 2.74; % NG
	1154	 12.48	 0.0	 0.0	 0.0	 0.999999	 100.0	 1	 20.8	 4.16; % NG
	231	 4.98	 0.0	 8.3	 -8.3	 1.0111115	 100.0	 1	 8.3	 1.66; % COW
	2887	 14.22	 2.0	 7.0	 -3.0	 1.0	 100.0	 1	 23.7	 4.74; % PEL
	2888	 14.22	 2.0	 7.0	 -3.0	 1.0	 100.0	 1	 23.7	 4.74; % NG
	1666	 14.22	 2.0	 7.0	 -3.0	 1.0	 100.0	 1	 23.7	 4.74; % PEL
	499	 10.2	 0.95	 1.0	 0.9	 1.0287175	 100.0	 1	 17.0	 3.4; % NG
	499	 4.2	 0.95	 1.0	 0.9	 1.0287175	 100.0	 1	 7.0	 1.4; % COW
	499	 10.2	 0.95	 1.0	 0.9	 1.0287175	 100.0	 1	 17.0	 3.4; % NG
	2709	 14.4	 0.0	 4.0	 -4.0	 1.0	 100.0	 1	 24.0	 4.8; % PEL
	709	 14.4	 0.0	 4.0	 -4.0	 1.0	 100.0	 1	 24.0	 4.8; % PEL
	2710	 14.4	 0.0	 4.0	 -4.0	 1.0	 100.0	 1	 24.0	 4.8; % PEL
	2708	 14.4	 0.0	 4.0	 -4.0	 1.0	 100.0	 1	 24.0	 4.8; % NG
	1280	 10.8	 0.0	 0.0	 0.0	 1.001694	 100.0	 1	 18.0	 3.6; % PEL
	1493	 0.0	 0.0	 11.0	 -11.0	 0.9444445	 100.0	 0	 18.0	 3.6; % PEL
	745	 17.4	 -5.0	 8.0	 -18.0	 0.999999	 100.0	 1	 29.0	 5.8; % NG
	2727	 17.4	 -6.5	 5.0	 -18.0	 0.999999	 100.0	 1	 29.0	 5.8; % PEL
	1445	 33.0	 0.0	 0.0	 0.0	 1.026667	 100.0	 1	 55.0	 11.0; % NG
	316	 2.5	 0.95	 1.0	 0.9	 0.976703	 100.0	 1	 5.0	 0.0; % NG
	316	 5.88	 -0.145	 3.14	 -3.43	 0.976703	 100.0	 1	 9.8	 1.96; % NG
	564	 6.0	 0.0	 0.0	 0.0	 1.015872	 100.0	 1	 10.0	 2.0; % NG
	1047	 7.2	 0.0	 0.0	 0.0	 1.000539	 100.0	 1	 12.0	 2.4; % NG
	1047	 1.0	 0.0	 0.0	 0.0	 1.000539	 100.0	 1	 2.0	 0.0; % PEL
	1335	 1.0	 1.0	 3.0	 -1.0	 1.003809	 100.0	 1	 2.0	 0.0; % PEL
	2624	 18.6	 -1.0	 15.0	 -17.0	 1.0	 100.0	 1	 31.0	 6.2; % NG
	298	 18.6	 -1.0	 15.0	 -17.0	 1.0	 100.0	 1	 31.0	 6.2; % NG
	298	 18.6	 -1.0	 15.0	 -17.0	 1.0	 100.0	 1	 31.0	 6.2; % PEL
	2625	 18.6	 -1.0	 15.0	 -17.0	 1.0	 100.0	 1	 31.0	 6.2; % PEL
	2625	 18.6	 -1.0	 15.0	 -17.0	 1.0	 100.0	 1	 31.0	 6.2; % PEL
	2624	 18.6	 -1.0	 15.0	 -17.0	 1.0	 100.0	 1	 31.0	 6.2; % NG
	2721	 14.4	 -0.005	 0.0	 -0.01	 1.0	 100.0	 1	 24.0	 4.8; % PEL
	2718	 14.4	 0.5	 8.0	 -7.0	 1.0	 100.0	 1	 24.0	 4.8; % COW
	741	 14.4	 0.5	 8.0	 -7.0	 1.0	 100.0	 1	 24.0	 4.8; % COW
	2719	 14.4	 0.5	 8.0	 -7.0	 1.0	 100.0	 1	 24.0	 4.8; % PEL
	2720	 14.4	 0.5	 8.0	 -7.0	 1.0	 100.0	 1	 24.0	 4.8; % NG
	283	 14.1	 0.0	 8.0	 -8.0	 0.9888895	 100.0	 1	 23.5	 4.7; % COW
	1506	 16.2	 -2.5	 6.0	 -11.0	 1.016412	 100.0	 1	 27.0	 5.4; % NG
	1506	 16.2	 -2.5	 6.0	 -11.0	 1.016412	 100.0	 1	 27.0	 5.4; % NG
	1847	 19.2	 2.0	 12.0	 -8.0	 1.015872	 100.0	 1	 32.0	 6.4; % COW
	1398	 12.01	 0.0	 0.0	 0.0	 1.0000025	 100.0	 1	 20.02	 4.0; % PEL
	1398	 12.21	 0.0	 0.0	 0.0	 1.0000025	 100.0	 1	 20.35	 4.07; % PEL
	225	 27.0	 0.0	 45.0	 -45.0	 1.0	 100.0	 1	 45.0	 9.0; % NG
	225	 27.0	 0.0	 45.0	 -45.0	 1.0	 100.0	 1	 45.0	 9.0; % NG
	1607	 0.87	 0.0	 0.0	 0.0	 1.0000025	 100.0	 1	 1.74	 0.0; % NG
	314	 12.0	 0.0	 10.0	 -10.0	 0.9448795	 100.0	 1	 20.0	 4.0; % PEL
	2680	 141.5	 20.0	 100.0	 -60.0	 1.0	 100.0	 1	 239.0	 44.0; % NG
	582	 125.5	 12.5	 70.0	 -45.0	 1.0	 100.0	 1	 169.0	 82.0; % COW
	2978	 125.5	 12.5	 70.0	 -45.0	 1.0	 100.0	 1	 169.0	 82.0; % COW
	2977	 141.5	 20.0	 100.0	 -60.0	 1.0	 100.0	 1	 239.0	 44.0; % NG
	240	 143.4	 2.5	 80.0	 -75.0	 1.05347	 100.0	 1	 239.0	 47.8; % NG
	1655	 7.2	 0.0	 0.0	 0.0	 0.999999	 100.0	 1	 12.0	 2.4; % NG
	1655	 2.0	 0.0	 0.0	 0.0	 0.999999	 100.0	 1	 4.0	 0.0; % PEL
	1150	 32.4	 0.0	 0.0	 0.0	 1.0377785	 100.0	 1	 54.0	 10.8; % PEL
	1447	 4.2	 -0.5	 2.0	 -3.0	 1.015872	 100.0	 1	 7.0	 1.4; % PEL
	906	 0.0	 0.0	 8.0	 -8.0	 1.04623	 100.0	 0	 21.0	 4.2; % PEL
	1474	 0.0	 -0.0	 1.0	 -1.0	 1.015872	 100.0	 0	 2.0	 0.0; % PEL
	1474	 4.8	 0.0	 3.0	 -3.0	 1.015872	 100.0	 1	 8.0	 1.6; % NG
	1474	 4.8	 0.0	 3.0	 -3.0	 1.015872	 100.0	 1	 8.0	 1.6; % COW
	963	 5.34	 -0.5	 1.0	 -2.0	 1.015872	 100.0	 1	 8.9	 1.78; % NG
	962	 13.2	 0.0	 0.0	 0.0	 1.0000025	 100.0	 1	 22.0	 4.4; % PEL
	923	 7.2	 0.0	 5.0	 -5.0	 1.015872	 100.0	 1	 12.0	 2.4; % COW
	1153	 9.6	 0.0	 17.3	 -17.3	 1.001654	 100.0	 1	 16.0	 3.2; % PEL
	1153	 10.08	 0.0	 10.0	 -10.0	 1.001654	 100.0	 1	 16.8	 3.36; % PEL
	274	 4.02	 0.0	 3.7	 -3.7	 0.999999	 100.0	 1	 6.7	 1.34; % NG
	274	 3.36	 0.0	 3.0	 -3.0	 0.999999	 100.0	 1	 5.6	 1.12; % PEL
	1776	 6.0	 0.0	 5.0	 -5.0	 1.015872	 100.0	 1	 10.0	 2.0; % NG
	1776	 6.0	 0.0	 5.0	 -5.0	 1.015872	 100.0	 1	 10.0	 2.0; % NG
	2914	 6.0	 0.0	 5.0	 -5.0	 1.015872	 100.0	 1	 10.0	 2.0; % NG
	2914	 6.0	 0.0	 5.0	 -5.0	 1.015872	 100.0	 1	 10.0	 2.0; % NG
	184	 0.0	 0.0	 8.0	 -17.0	 1.033334	 100.0	 0	 23.4	 4.68; % PEL
	1657	 15.6	 -0.5	 16.0	 -17.0	 1.0233335	 100.0	 1	 26.0	 5.2; % NG
	1657	 15.6	 -0.5	 16.0	 -17.0	 1.0233335	 100.0	 1	 26.0	 5.2; % NG
	1761	 1.25	 0.0	 0.1	 -0.1	 1.00445	 100.0	 1	 2.5	 0.0; % PEL
	1761	 0.0	 0.0	 1.0	 0.9	 1.00445	 100.0	 0	 11.0	 2.2; % NG
	1868	 18.0	 0.0	 18.0	 -18.0	 0.999999	 100.0	 1	 30.0	 6.0; % PEL
	1868	 18.0	 0.0	 18.0	 -18.0	 0.999999	 100.0	 1	 30.0	 6.0; % PEL
	731	 0.0	 0.0	 26.0	 -26.0	 0.999999	 100.0	 0	 43.0	 8.6; % NG
	2715	 0.0	 0.0	 20.0	 -20.0	 0.999999	 100.0	 0	 38.0	 7.6; % COW
	1263	 13.86	 0.0	 14.0	 -14.0	 0.999999	 100.0	 1	 23.1	 4.62; % NG
	1263	 13.86	 0.0	 14.0	 -14.0	 0.999999	 100.0	 1	 23.1	 4.62; % NG
	161	 10.8	 0.0	 5.0	 -5.0	 0.975	 100.0	 1	 18.0	 3.6; % PEL
	604	 6.12	 0.0	 6.0	 -6.0	 0.999999	 100.0	 1	 10.2	 2.04; % NG
	918	 15.6	 0.0	 0.0	 0.0	 1.0000025	 100.0	 1	 26.0	 5.2; % PEL
	1760	 6.9	 0.0	 1.0	 -1.0	 1.0013775	 100.0	 1	 11.5	 2.3; % NG
	1760	 6.9	 0.0	 1.0	 -1.0	 1.0013775	 100.0	 1	 11.5	 2.3; % NG
	1414	 7.8	 0.0	 7.8	 -7.8	 0.999999	 100.0	 1	 13.0	 2.6; % NG
	1414	 7.2	 0.0	 7.2	 -7.2	 0.999999	 100.0	 1	 12.0	 2.4; % NG
	662	 24.0	 1.0	 20.0	 -18.0	 1.0	 100.0	 1	 40.0	 8.0; % NG
	2697	 24.0	 1.0	 20.0	 -18.0	 1.0	 100.0	 1	 40.0	 8.0; % COW
	2696	 24.0	 1.0	 20.0	 -18.0	 1.0	 100.0	 1	 40.0	 8.0; % NG
	1346	 7.2	 0.0	 7.0	 -7.0	 0.999999	 100.0	 1	 12.0	 2.4; % COW
	1346	 7.2	 0.0	 7.0	 -7.0	 0.999999	 100.0	 1	 12.0	 2.4; % PEL
	2622	 4.8	 0.0	 26.0	 -26.0	 1.0	 100.0	 1	 8.0	 1.6; % NG
	2622	 9.0	 0.0	 26.0	 -26.0	 1.0	 100.0	 1	 15.0	 3.0; % NG
	291	 11.4	 0.0	 26.0	 -26.0	 1.0	 100.0	 1	 19.0	 3.8; % NG
	1490	 6.36	 0.0	 6.5	 -6.5	 0.999999	 100.0	 1	 10.6	 2.12; % NG
	1671	 12.84	 0.0	 15.0	 -15.0	 1.0158755	 100.0	 1	 21.4	 4.28; % NG
	1615	 23.4	 0.0	 24.0	 -24.0	 0.999999	 100.0	 1	 39.0	 7.8; % COW
	1681	 52.2	 0.87	 26.1	 -24.36	 1.044445	 100.0	 1	 87.0	 17.4; % NG
	418	 45.0	 5.0	 50.0	 -40.0	 1.0	 100.0	 1	 75.0	 15.0; % PEL
	2658	 45.0	 5.0	 50.0	 -40.0	 1.0	 100.0	 1	 75.0	 15.0; % PEL
	418	 45.0	 5.0	 50.0	 -40.0	 1.0	 100.0	 1	 75.0	 15.0; % PEL
	2658	 45.0	 5.0	 50.0	 -40.0	 1.0	 100.0	 1	 75.0	 15.0; % NG
	461	 24.84	 0.415	 12.42	 -11.59	 1.044445	 100.0	 1	 41.4	 8.28; % NG
	31	 4.01	 0.0	 0.0	 0.0	 1.004309	 100.0	 1	 6.68	 1.34; % NG
	236	 9.0	 3.5	 7.0	 0.0	 1.015872	 100.0	 1	 15.0	 3.0; % NG
	236	 9.0	 3.5	 7.0	 0.0	 1.015872	 100.0	 1	 15.0	 3.0; % NG
	1754	 0.5	 0.0	 1.0	 -1.0	 1.015872	 100.0	 1	 1.0	 0.0; % PEL
	1754	 0.5	 0.0	 1.0	 -1.0	 1.015872	 100.0	 1	 1.0	 0.0; % PEL
	1754	 0.5	 0.0	 1.0	 -1.0	 1.015872	 100.0	 1	 1.0	 0.0; % PEL
	898	 0.85	 0.0	 0.0	 0.0	 1.001324	 100.0	 1	 1.7	 0.0; % PEL
	898	 13.56	 0.0	 0.0	 0.0	 1.001324	 100.0	 1	 22.6	 4.52; % NG
	120	 9.0	 0.0	 9.0	 -9.0	 1.002569	 100.0	 1	 15.0	 3.0; % NG
	549	 27.5	 6.0	 22.0	 -10.0	 1.015872	 100.0	 1	 50.0	 5.0; % NG
	77	 14.1	 0.0	 0.0	 0.0	 1.0027225	 100.0	 1	 23.5	 4.7; % PEL
	124	 -3.5	 0.0	 0.0	 0.0	 1.0013325	 100.0	 1	 0.0	 -7.0; % SYNC
	124	 -3.5	 0.0	 0.0	 0.0	 1.0013325	 100.0	 1	 0.0	 -7.0; % SYNC
	552	 12.6	 0.0	 0.0	 0.0	 1.015872	 100.0	 1	 21.0	 4.2; % COW
	1858	 5.76	 0.0	 6.0	 -6.0	 0.9444445	 100.0	 1	 9.6	 1.92; % NG
	134	 15.0	 2.0	 13.0	 -9.0	 1.0233335	 100.0	 1	 25.0	 5.0; % COW
	1204	 25.2	 2.5	 25.0	 -20.0	 1.00031	 100.0	 1	 42.0	 8.4; % NG
	1204	 25.2	 2.5	 25.0	 -20.0	 1.00031	 100.0	 1	 42.0	 8.4; % NG
...
];

%% generator cost data
%	2	startup	shutdown	n	c(n-1)	...	c0
mpc.gencost = [
2	0.0	0.0	3	0.2	100.986309	0.000000;	%	PEL
2	0.0	0.0	3	0.2	126.418079	0.000000;	%	PEL
2	0.0	0.0	3	0.2	40.731394	0.000000;	%	NG
2	0.0	0.0	3	0.2	40.126035	0.000000;	%	NG
2	0.0	0.0	3	0.2	14.340287	0.000000;	%	NG
2	0.0	0.0	3	0.2	40.157194	0.000000;	%	NG
2	0.0	0.0	3	0.2	117.418605	0.000000;	%	PEL
2	0.0	0.0	3	0.2	33.635175	0.000000;	%	COW
2	0.0	0.0	3	0.2	31.477929	0.000000;	%	NG
2	0.0	0.0	3	0.2	98.758944	0.000000;	%	PEL
2	0.0	0.0	3	0.2	40.818052	0.000000;	%	NG
2	0.0	0.0	3	0.2	121.333846	0.000000;	%	PEL
2	0.0	0.0	3	0.2	32.779420	0.000000;	%	NG
2	0.0	0.0	3	0.2	25.295674	0.000000;	%	NG
2	0.0	0.0	3	0.2	37.867529	0.000000;	%	NG
2	0.0	0.0	3	0.2	34.253779	0.000000;	%	NG
2	0.0	0.0	3	0.2	29.445017	0.000000;	%	COW
2	0.0	0.0	3	0.2	34.926541	0.000000;	%	NG
2	0.0	0.0	3	0.2	25.340211	0.000000;	%	NG
2	0.0	0.0	3	0.2	24.973259	0.000000;	%	NG
2	0.0	0.0	3	0.2	32.940298	0.000000;	%	NG
2	0.0	0.0	3	0.2	44.906810	0.000000;	%	NG
2	0.0	0.0	3	0.2	43.093264	0.000000;	%	NG
2	0.0	0.0	3	0.2	16.543830	0.000000;	%	NG
2	0.0	0.0	3	0.2	31.291874	0.000000;	%	NG
2	0.0	0.0	3	0.2	106.235693	0.000000;	%	PEL
2	0.0	0.0	3	0.2	26.167192	0.000000;	%	NG
2	0.0	0.0	3	0.2	105.772694	0.000000;	%	PEL
2	0.0	0.0	3	0.2	109.990006	0.000000;	%	PEL
2	0.0	0.0	3	0.2	102.341460	0.000000;	%	PEL
2	0.0	0.0	3	0.2	23.505422	0.000000;	%	NG
2	0.0	0.0	3	0.2	108.515642	0.000000;	%	PEL
2	0.0	0.0	3	0.2	103.166394	0.000000;	%	PEL
2	0.0	0.0	3	0.2	114.320443	0.000000;	%	PEL
2	0.0	0.0	3	0.2	41.243026	0.000000;	%	NG
2	0.0	0.0	3	0.2	43.237882	0.000000;	%	NG
2	0.0	0.0	3	0.2	30.171172	0.000000;	%	NG
2	0.0	0.0	3	0.2	18.516359	0.000000;	%	NG
2	0.0	0.0	3	0.2	52.060991	0.000000;	%	NG
2	0.0	0.0	3	0.2	43.340325	0.000000;	%	NG
2	0.0	0.0	3	0.2	30.769345	0.000000;	%	NG
2	0.0	0.0	3	0.2	48.207211	0.000000;	%	NG
2	0.0	0.0	3	0.2	117.478299	0.000000;	%	PEL
2	0.0	0.0	3	0.2	27.644824	0.000000;	%	NG
2	0.0	0.0	3	0.2	115.143841	0.000000;	%	PEL
2	0.0	0.0	3	0.2	20.063488	0.000000;	%	NG
2	0.0	0.0	3	0.2	44.182536	0.000000;	%	NG
2	0.0	0.0	3	0.2	122.548887	0.000000;	%	PEL
2	0.0	0.0	3	0.2	38.399391	0.000000;	%	NG
2	0.0	0.0	3	0.2	31.433671	0.000000;	%	NG
2	0.0	0.0	3	0.2	107.380824	0.000000;	%	PEL
2	0.0	0.0	3	0.2	107.912049	0.000000;	%	PEL
2	0.0	0.0	3	0.2	29.061768	0.000000;	%	NG
2	0.0	0.0	3	0.2	25.311460	0.000000;	%	NG
2	0.0	0.0	3	0.2	36.029694	0.000000;	%	NG
2	0.0	0.0	3	0.2	10.513096	0.000000;	%	NG
2	0.0	0.0	3	0.2	35.586535	0.000000;	%	NG
2	0.0	0.0	3	0.2	42.894607	0.000000;	%	NG
2	0.0	0.0	3	0.2	124.367340	0.000000;	%	PEL
2	0.0	0.0	3	0.2	52.320279	0.000000;	%	NG
2	0.0	0.0	3	0.2	26.140314	0.000000;	%	COW
2	0.0	0.0	3	0.2	123.799005	0.000000;	%	PEL
2	0.0	0.0	3	0.2	101.753605	0.000000;	%	PEL
2	0.0	0.0	3	0.2	19.961544	0.000000;	%	NG
2	0.0	0.0	3	0.2	110.879704	0.000000;	%	PEL
2	0.0	0.0	3	0.2	37.715142	0.000000;	%	NG
2	0.0	0.0	3	0.2	41.499876	0.000000;	%	COW
2	0.0	0.0	3	0.2	28.650617	0.000000;	%	NG
2	0.0	0.0	3	0.2	46.596802	0.000000;	%	NG
2	0.0	0.0	3	0.2	31.909977	0.000000;	%	NG
2	0.0	0.0	3	0.2	12.435424	0.000000;	%	NG
2	0.0	0.0	3	0.2	19.250727	0.000000;	%	NG
2	0.0	0.0	3	0.2	19.966272	0.000000;	%	NG
2	0.0	0.0	3	0.2	45.089052	0.000000;	%	NG
2	0.0	0.0	3	0.2	29.705389	0.000000;	%	NG
2	0.0	0.0	3	0.2	11.847894	0.000000;	%	NG
2	0.0	0.0	3	0.2	27.254106	0.000000;	%	NG
2	0.0	0.0	3	0.2	39.851280	0.000000;	%	NG
2	0.0	0.0	3	0.2	22.104855	0.000000;	%	NG
2	0.0	0.0	3	0.2	38.440906	0.000000;	%	NG
2	0.0	0.0	3	0.2	29.870503	0.000000;	%	COW
2	0.0	0.0	3	0.2	99.615888	0.000000;	%	PEL
2	0.0	0.0	3	0.2	37.192109	0.000000;	%	NG
2	0.0	0.0	3	0.2	109.748848	0.000000;	%	PEL
2	0.0	0.0	3	0.2	36.935647	0.000000;	%	NG
2	0.0	0.0	3	0.2	38.368275	0.000000;	%	COW
2	0.0	0.0	3	0.2	34.812461	0.000000;	%	NG
2	0.0	0.0	3	0.2	122.571958	0.000000;	%	PEL
2	0.0	0.0	3	0.2	124.160569	0.000000;	%	PEL
2	0.0	0.0	3	0.2	101.716137	0.000000;	%	PEL
2	0.0	0.0	3	0.2	30.257074	0.000000;	%	NG
2	0.0	0.0	3	0.2	121.460880	0.000000;	%	PEL
2	0.0	0.0	3	0.2	103.089036	0.000000;	%	PEL
2	0.0	0.0	3	0.2	43.477694	0.000000;	%	NG
2	0.0	0.0	3	0.2	112.383190	0.000000;	%	PEL
2	0.0	0.0	3	0.2	38.821409	0.000000;	%	NG
2	0.0	0.0	3	0.2	28.695354	0.000000;	%	NG
2	0.0	0.0	3	0.2	43.888638	0.000000;	%	NG
2	0.0	0.0	3	0.2	40.684211	0.000000;	%	NG
2	0.0	0.0	3	0.2	14.839319	0.000000;	%	NG
2	0.0	0.0	3	0.2	107.083296	0.000000;	%	PEL
2	0.0	0.0	3	0.2	109.526673	0.000000;	%	PEL
2	0.0	0.0	3	0.2	48.835643	0.000000;	%	NG
2	0.0	0.0	3	0.2	63.494909	0.000000;	%	NG
2	0.0	0.0	3	0.2	114.994004	0.000000;	%	PEL
2	0.0	0.0	3	0.2	121.183185	0.000000;	%	PEL
2	0.0	0.0	3	0.2	121.344595	0.000000;	%	PEL
2	0.0	0.0	3	0.2	27.691496	0.000000;	%	NG
2	0.0	0.0	3	0.2	99.721503	0.000000;	%	PEL
2	0.0	0.0	3	0.2	20.788956	0.000000;	%	COW
2	0.0	0.0	3	0.2	20.181650	0.000000;	%	COW
2	0.0	0.0	3	0.2	110.443975	0.000000;	%	PEL
2	0.0	0.0	3	0.2	33.244939	0.000000;	%	NG
2	0.0	0.0	3	0.2	22.602296	0.000000;	%	COW
2	0.0	0.0	3	0.2	34.589169	0.000000;	%	NG
2	0.0	0.0	3	0.2	28.113517	0.000000;	%	NG
2	0.0	0.0	3	0.2	19.089435	0.000000;	%	COW
2	0.0	0.0	3	0.2	91.627137	0.000000;	%	PEL
2	0.0	0.0	3	0.2	110.180830	0.000000;	%	PEL
2	0.0	0.0	3	0.2	48.928989	0.000000;	%	NG
2	0.0	0.0	3	0.2	43.284540	0.000000;	%	NG
2	0.0	0.0	3	0.2	26.075438	0.000000;	%	NG
2	0.0	0.0	3	0.2	102.387833	0.000000;	%	PEL
2	0.0	0.0	3	0.2	28.628779	0.000000;	%	NG
2	0.0	0.0	3	0.2	30.501955	0.000000;	%	COW
2	0.0	0.0	3	0.2	36.562901	0.000000;	%	COW
2	0.0	0.0	3	0.2	50.484077	0.000000;	%	NG
2	0.0	0.0	3	0.2	33.937162	0.000000;	%	NG
2	0.0	0.0	3	0.2	33.889690	0.000000;	%	NG
2	0.0	0.0	3	0.2	96.773902	0.000000;	%	PEL
2	0.0	0.0	3	0.2	103.201864	0.000000;	%	PEL
2	0.0	0.0	3	0.2	108.810518	0.000000;	%	PEL
2	0.0	0.0	3	0.2	120.646300	0.000000;	%	PEL
2	0.0	0.0	3	0.2	125.061063	0.000000;	%	PEL
2	0.0	0.0	3	0.2	47.152033	0.000000;	%	NG
2	0.0	0.0	3	0.2	27.556339	0.000000;	%	COW
2	0.0	0.0	3	0.2	33.296792	0.000000;	%	NG
2	0.0	0.0	3	0.2	108.178986	0.000000;	%	PEL
2	0.0	0.0	3	0.2	26.131836	0.000000;	%	COW
2	0.0	0.0	3	0.2	118.557785	0.000000;	%	PEL
2	0.0	0.0	3	0.2	142.759395	0.000000;	%	PEL
2	0.0	0.0	3	0.2	23.901832	0.000000;	%	NG
2	0.0	0.0	3	0.2	116.480176	0.000000;	%	PEL
2	0.0	0.0	3	0.2	50.619924	0.000000;	%	NG
2	0.0	0.0	3	0.2	25.844586	0.000000;	%	NG
2	0.0	0.0	3	0.2	36.816217	0.000000;	%	NG
2	0.0	0.0	3	0.2	35.602479	0.000000;	%	NG
2	0.0	0.0	3	0.2	97.533932	0.000000;	%	PEL
2	0.0	0.0	3	0.2	13.444523	0.000000;	%	NG
2	0.0	0.0	3	0.2	23.036512	0.000000;	%	NG
2	0.0	0.0	3	0.2	113.583074	0.000000;	%	PEL
2	0.0	0.0	3	0.2	29.383994	0.000000;	%	NG
2	0.0	0.0	3	0.2	126.780352	0.000000;	%	PEL
2	0.0	0.0	3	0.2	126.111267	0.000000;	%	PEL
2	0.0	0.0	3	0.2	42.883940	0.000000;	%	NG
2	0.0	0.0	3	0.2	30.122404	0.000000;	%	COW
2	0.0	0.0	3	0.2	40.746253	0.000000;	%	NG
2	0.0	0.0	3	0.2	34.735244	0.000000;	%	NG
2	0.0	0.0	3	0.2	107.971493	0.000000;	%	PEL
2	0.0	0.0	3	0.2	29.759241	0.000000;	%	NG
2	0.0	0.0	3	0.2	114.031202	0.000000;	%	PEL
2	0.0	0.0	3	0.2	38.530524	0.000000;	%	NG
2	0.0	0.0	3	0.2	23.562956	0.000000;	%	NG
2	0.0	0.0	3	0.2	29.663453	0.000000;	%	NG
2	0.0	0.0	3	0.2	52.598730	0.000000;	%	NG
2	0.0	0.0	3	0.2	40.774356	0.000000;	%	NG
2	0.0	0.0	3	0.2	22.799318	0.000000;	%	COW
2	0.0	0.0	3	0.2	50.901715	0.000000;	%	NG
2	0.0	0.0	3	0.2	25.100556	0.000000;	%	COW
2	0.0	0.0	3	0.2	96.041267	0.000000;	%	PEL
2	0.0	0.0	3	0.2	21.274763	0.000000;	%	NG
2	0.0	0.0	3	0.2	63.988407	0.000000;	%	NG
2	0.0	0.0	3	0.2	6.768817	0.000000;	%	NG
2	0.0	0.0	3	0.2	20.342247	0.000000;	%	NG
2	0.0	0.0	3	0.2	35.857844	0.000000;	%	NG
2	0.0	0.0	3	0.2	25.249181	0.000000;	%	COW
2	0.0	0.0	3	0.2	32.143849	0.000000;	%	NG
2	0.0	0.0	3	0.2	127.920347	0.000000;	%	PEL
2	0.0	0.0	3	0.2	123.840875	0.000000;	%	PEL
2	0.0	0.0	3	0.2	116.032186	0.000000;	%	PEL
2	0.0	0.0	3	0.2	43.187520	0.000000;	%	NG
2	0.0	0.0	3	0.2	41.584963	0.000000;	%	NG
2	0.0	0.0	3	0.2	28.901507	0.000000;	%	NG
2	0.0	0.0	3	0.2	19.975670	0.000000;	%	NG
2	0.0	0.0	3	0.2	22.195377	0.000000;	%	NG
2	0.0	0.0	3	0.2	109.180191	0.000000;	%	PEL
2	0.0	0.0	3	0.2	122.670246	0.000000;	%	PEL
2	0.0	0.0	3	0.2	99.018768	0.000000;	%	PEL
2	0.0	0.0	3	0.2	110.665173	0.000000;	%	PEL
2	0.0	0.0	3	0.2	46.104826	0.000000;	%	NG
2	0.0	0.0	3	0.2	39.544082	0.000000;	%	NG
2	0.0	0.0	3	0.2	48.645314	0.000000;	%	NG
2	0.0	0.0	3	0.2	104.850363	0.000000;	%	PEL
	2	 0.0	 0.0	 3	   0.000000	   0.000000	   0.000000; % SYNC
	2	 0.0	 0.0	 3	   0.000000	   0.000000	   0.000000; % SYNC
2	0.0	0.0	3	0.2	25.705133	0.000000;	%	COW
2	0.0	0.0	3	0.2	56.459884	0.000000;	%	NG
2	0.0	0.0	3	0.2	16.383320	0.000000;	%	COW
2	0.0	0.0	3	0.2	37.400378	0.000000;	%	NG
2	0.0	0.0	3	0.2	53.728787	0.000000;	%	NG
...
];

%% storage data
%	bus	energy	energy_rating	charge_rating	discharge_rating	thermal_rating	qmin	qmax	r	x	standby_loss	status
mpc.storage = [
	2564	0.0	0.0	1.00	1399.0500	699.5250	503.6580	0.9	0.85	1000	-1000	1000	0.1	0.01	0	0	1;
	2566	0.0	0.0	1.00	1027.8000	513.9000	370.0080	0.9	0.85	1000	-1000	1000	0.1	0.01	0	0	1;
	2539	0.0	0.0	1.00	924.9000	462.4500	332.9640	0.9	0.85	1000	-1000	1000	0.1	0.01	0	0	1;
	2540	0.0	0.0	1.00	744.0000	372.0000	267.8400	0.9	0.85	1000	-1000	1000	0.1	0.01	0	0	1;
	2569	0.0	0.0	1.00	699.3000	349.6500	251.7480	0.9	0.85	1000	-1000	1000	0.1	0.01	0	0	1;
	2563	0.0	0.0	1.00	611.5500	305.7750	220.1580	0.9	0.85	1000	-1000	1000	0.1	0.01	0	0	1;
	802	0.0	0.0	1.00	606.9000	303.4500	218.4840	0.9	0.85	1000	-1000	1000	0.1	0.01	0	0	1;
	2555	0.0	0.0	1.00	603.7500	301.8750	217.3500	0.9	0.85	1000	-1000	1000	0.1	0.01	0	0	1;
	1109	0.0	0.0	1.00	591.0000	295.5000	212.7600	0.9	0.85	1000	-1000	1000	0.1	0.01	0	0	1;
	444	0.0	0.0	1.00	582.0000	291.0000	209.5200	0.9	0.85	1000	-1000	1000	0.1	0.01	0	0	1;
	1351	0.0	0.0	1.00	564.7500	282.3750	203.3100	0.9	0.85	1000	-1000	1000	0.1	0.01	0	0	1;
	2550	0.0	0.0	1.00	510.7500	255.3750	183.8700	0.9	0.85	1000	-1000	1000	0.1	0.01	0	0	1;
	1735	0.0	0.0	1.00	502.8000	251.4000	181.0080	0.9	0.85	1000	-1000	1000	0.1	0.01	0	0	1;
	1274	0.0	0.0	1.00	482.2500	241.1250	173.6100	0.9	0.85	1000	-1000	1000	0.1	0.01	0	0	1;
	69	0.0	0.0	1.00	481.0500	240.5250	173.1780	0.9	0.85	1000	-1000	1000	0.1	0.01	0	0	1;
	904	0.0	0.0	1.00	475.0500	237.5250	171.0180	0.9	0.85	1000	-1000	1000	0.1	0.01	0	0	1;
	674	0.0	0.0	1.00	469.6500	234.8250	169.0740	0.9	0.85	1000	-1000	1000	0.1	0.01	0	0	1;
	1724	0.0	0.0	1.00	463.9500	231.9750	167.0220	0.9	0.85	1000	-1000	1000	0.1	0.01	0	0	1;
	365	0.0	0.0	1.00	462.9000	231.4500	166.6440	0.9	0.85	1000	-1000	1000	0.1	0.01	0	0	1;
	372	0.0	0.0	1.00	460.0500	230.0250	165.6180	0.9	0.85	1000	-1000	1000	0.1	0.01	0	0	1;
	896	0.0	0.0	1.00	454.0500	227.0250	163.4580	0.9	0.85	1000	-1000	1000	0.1	0.01	0	0	1;
	1251	0.0	0.0	1.00	450.1500	225.0750	162.0540	0.9	0.85	1000	-1000	1000	0.1	0.01	0	0	1;
	734	0.0	0.0	1.00	440.5500	220.2750	158.5980	0.9	0.85	1000	-1000	1000	0.1	0.01	0	0	1;
	1015	0.0	0.0	1.00	436.0500	218.0250	156.9780	0.9	0.85	1000	-1000	1000	0.1	0.01	0	0	1;
	748	0.0	0.0	1.00	421.8000	210.9000	151.8480	0.9	0.85	1000	-1000	1000	0.1	0.01	0	0	1;
	286	0.0	0.0	1.00	411.1500	205.5750	148.0140	0.9	0.85	1000	-1000	1000	0.1	0.01	0	0	1;
	402	0.0	0.0	1.00	409.6500	204.8250	147.4740	0.9	0.85	1000	-1000	1000	0.1	0.01	0	0	1;
	1219	0.0	0.0	1.00	401.1000	200.5500	144.3960	0.9	0.85	1000	-1000	1000	0.1	0.01	0	0	1;
	1374	0.0	0.0	1.00	394.0500	197.0250	141.8580	0.9	0.85	1000	-1000	1000	0.1	0.01	0	0	1;
	395	0.0	0.0	1.00	390.3000	195.1500	140.5080	0.9	0.85	1000	-1000	1000	0.1	0.01	0	0	1;
	441	0.0	0.0	1.00	386.7000	193.3500	139.2120	0.9	0.85	1000	-1000	1000	0.1	0.01	0	0	1;
	199	0.0	0.0	1.00	376.2000	188.1000	135.4320	0.9	0.85	1000	-1000	1000	0.1	0.01	0	0	1;
	614	0.0	0.0	1.00	376.0500	188.0250	135.3780	0.9	0.85	1000	-1000	1000	0.1	0.01	0	0	1;
	1387	0.0	0.0	1.00	373.5000	186.7500	134.4600	0.9	0.85	1000	-1000	1000	0.1	0.01	0	0	1;
	1748	0.0	0.0	1.00	373.5000	186.7500	134.4600	0.9	0.85	1000	-1000	1000	0.1	0.01	0	0	1;
	677	0.0	0.0	1.00	372.3000	186.1500	134.0280	0.9	0.85	1000	-1000	1000	0.1	0.01	0	0	1;
	919	0.0	0.0	1.00	371.8500	185.9250	133.8660	0.9	0.85	1000	-1000	1000	0.1	0.01	0	0	1;
	912	0.0	0.0	1.00	369.4500	184.7250	133.0020	0.9	0.85	1000	-1000	1000	0.1	0.01	0	0	1;
	516	0.0	0.0	1.00	367.0500	183.5250	132.1380	0.9	0.85	1000	-1000	1000	0.1	0.01	0	0	1;
	369	0.0	0.0	1.00	364.2000	182.1000	131.1120	0.9	0.85	1000	-1000	1000	0.1	0.01	0	0	1;
	596	0.0	0.0	1.00	364.2000	182.1000	131.1120	0.9	0.85	1000	-1000	1000	0.1	0.01	0	0	1;
	1298	0.0	0.0	1.00	363.0000	181.5000	130.6800	0.9	0.85	1000	-1000	1000	0.1	0.01	0	0	1;
	527	0.0	0.0	1.00	355.9500	177.9750	128.1420	0.9	0.85	1000	-1000	1000	0.1	0.01	0	0	1;
	1824	0.0	0.0	1.00	352.0500	176.0250	126.7380	0.9	0.85	1000	-1000	1000	0.1	0.01	0	0	1;
	1620	0.0	0.0	1.00	350.5500	175.2750	126.1980	0.9	0.85	1000	-1000	1000	0.1	0.01	0	0	1;
	1384	0.0	0.0	1.00	346.2000	173.1000	124.6320	0.9	0.85	1000	-1000	1000	0.1	0.01	0	0	1;
	7	0.0	0.0	1.00	335.4000	167.7000	120.7440	0.9	0.85	1000	-1000	1000	0.1	0.01	0	0	1;
	1483	0.0	0.0	1.00	330.7500	165.3750	119.0700	0.9	0.85	1000	-1000	1000	0.1	0.01	0	0	1;
	551	0.0	0.0	1.00	329.4000	164.7000	118.5840	0.9	0.85	1000	-1000	1000	0.1	0.01	0	0	1;
	1283	0.0	0.0	1.00	329.1000	164.5500	118.4760	0.9	0.85	1000	-1000	1000	0.1	0.01	0	0	1;
	2561	0.0	0.0	1.00	325.8000	162.9000	117.2880	0.9	0.85	1000	-1000	1000	0.1	0.01	0	0	1;
	1443	0.0	0.0	1.00	325.5000	162.7500	117.1800	0.9	0.85	1000	-1000	1000	0.1	0.01	0	0	1;
	949	0.0	0.0	1.00	325.2000	162.6000	117.0720	0.9	0.85	1000	-1000	1000	0.1	0.01	0	0	1;
	1542	0.0	0.0	1.00	324.0000	162.0000	116.6400	0.9	0.85	1000	-1000	1000	0.1	0.01	0	0	1;
	2826	0.0	0.0	1.00	321.7500	160.8750	115.8300	0.9	0.85	1000	-1000	1000	0.1	0.01	0	0	1;
	1545	0.0	0.0	1.00	320.1000	160.0500	115.2360	0.9	0.85	1000	-1000	1000	0.1	0.01	0	0	1;
	1556	0.0	0.0	1.00	317.1000	158.5500	114.1560	0.9	0.85	1000	-1000	1000	0.1	0.01	0	0	1;
	1295	0.0	0.0	1.00	315.0000	157.5000	113.4000	0.9	0.85	1000	-1000	1000	0.1	0.01	0	0	1;
	675	0.0	0.0	1.00	313.6500	156.8250	112.9140	0.9	0.85	1000	-1000	1000	0.1	0.01	0	0	1;
	959	0.0	0.0	1.00	312.4500	156.2250	112.4820	0.9	0.85	1000	-1000	1000	0.1	0.01	0	0	1;
	1661	0.0	0.0	1.00	302.7000	151.3500	108.9720	0.9	0.85	1000	-1000	1000	0.1	0.01	0	0	1;
	1350	0.0	0.0	1.00	301.9500	150.9750	108.7020	0.9	0.85	1000	-1000	1000	0.1	0.01	0	0	1;
	421	0.0	0.0	1.00	301.3500	150.6750	108.4860	0.9	0.85	1000	-1000	1000	0.1	0.01	0	0	1;
	1202	0.0	0.0	1.00	298.8000	149.4000	107.5680	0.9	0.85	1000	-1000	1000	0.1	0.01	0	0	1;
	848	0.0	0.0	1.00	298.0500	149.0250	107.2980	0.9	0.85	1000	-1000	1000	0.1	0.01	0	0	1;
	2638	0.0	0.0	1.00	296.5500	148.2750	106.7580	0.9	0.85	1000	-1000	1000	0.1	0.01	0	0	1;
	264	0.0	0.0	1.00	292.5000	146.2500	105.3000	0.9	0.85	1000	-1000	1000	0.1	0.01	0	0	1;
	91	0.0	0.0	1.00	285.1500	142.5750	102.6540	0.9	0.85	1000	-1000	1000	0.1	0.01	0	0	1;
	16	0.0	0.0	1.00	284.7000	142.3500	102.4920	0.9	0.85	1000	-1000	1000	0.1	0.01	0	0	1;
	1567	0.0	0.0	1.00	284.4000	142.2000	102.3840	0.9	0.85	1000	-1000	1000	0.1	0.01	0	0	1;
	768	0.0	0.0	1.00	281.5500	140.7750	101.3580	0.9	0.85	1000	-1000	1000	0.1	0.01	0	0	1;
	165	0.0	0.0	1.00	280.9500	140.4750	101.1420	0.9	0.85	1000	-1000	1000	0.1	0.01	0	0	1;
	1715	0.0	0.0	1.00	280.6500	140.3250	101.0340	0.9	0.85	1000	-1000	1000	0.1	0.01	0	0	1;
	864	0.0	0.0	1.00	280.2000	140.1000	100.8720	0.9	0.85	1000	-1000	1000	0.1	0.01	0	0	1;
	1332	0.0	0.0	1.00	279.3000	139.6500	100.5480	0.9	0.85	1000	-1000	1000	0.1	0.01	0	0	1;
	216	0.0	0.0	1.00	279.0000	139.5000	100.4400	0.9	0.85	1000	-1000	1000	0.1	0.01	0	0	1;
	951	0.0	0.0	1.00	276.1500	138.0750	99.4140	0.9	0.85	1000	-1000	1000	0.1	0.01	0	0	1;
	391	0.0	0.0	1.00	274.2000	137.1000	98.7120	0.9	0.85	1000	-1000	1000	0.1	0.01	0	0	1;
	171	0.0	0.0	1.00	272.2500	136.1250	98.0100	0.9	0.85	1000	-1000	1000	0.1	0.01	0	0	1;
	1301	0.0	0.0	1.00	267.9000	133.9500	96.4440	0.9	0.85	1000	-1000	1000	0.1	0.01	0	0	1;
	1804	0.0	0.0	1.00	265.6500	132.8250	95.6340	0.9	0.85	1000	-1000	1000	0.1	0.01	0	0	1;
	790	0.0	0.0	1.00	261.1500	130.5750	94.0140	0.9	0.85	1000	-1000	1000	0.1	0.01	0	0	1;
	2960	0.0	0.0	1.00	261.0000	130.5000	93.9600	0.9	0.85	1000	-1000	1000	0.1	0.01	0	0	1;
	361	0.0	0.0	1.00	258.0000	129.0000	92.8800	0.9	0.85	1000	-1000	1000	0.1	0.01	0	0	1;
	1813	0.0	0.0	1.00	254.7000	127.3500	91.6920	0.9	0.85	1000	-1000	1000	0.1	0.01	0	0	1;
	455	0.0	0.0	1.00	253.6500	126.8250	91.3140	0.9	0.85	1000	-1000	1000	0.1	0.01	0	0	1;
	45	0.0	0.0	1.00	252.6000	126.3000	90.9360	0.9	0.85	1000	-1000	1000	0.1	0.01	0	0	1;
	1886	0.0	0.0	1.00	252.0000	126.0000	90.7200	0.9	0.85	1000	-1000	1000	0.1	0.01	0	0	1;
	1240	0.0	0.0	1.00	251.2500	125.6250	90.4500	0.9	0.85	1000	-1000	1000	0.1	0.01	0	0	1;
	2544	0.0	0.0	1.00	251.2500	125.6250	90.4500	0.9	0.85	1000	-1000	1000	0.1	0.01	0	0	1;
	586	0.0	0.0	1.00	249.0000	124.5000	89.6400	0.9	0.85	1000	-1000	1000	0.1	0.01	0	0	1;
	358	0.0	0.0	1.00	248.8500	124.4250	89.5860	0.9	0.85	1000	-1000	1000	0.1	0.01	0	0	1;
	243	0.0	0.0	1.00	248.1000	124.0500	89.3160	0.9	0.85	1000	-1000	1000	0.1	0.01	0	0	1;
	1373	0.0	0.0	1.00	247.9500	123.9750	89.2620	0.9	0.85	1000	-1000	1000	0.1	0.01	0	0	1;
	1434	0.0	0.0	1.00	247.5000	123.7500	89.1000	0.9	0.85	1000	-1000	1000	0.1	0.01	0	0	1;
	1719	0.0	0.0	1.00	244.0500	122.0250	87.8580	0.9	0.85	1000	-1000	1000	0.1	0.01	0	0	1;
	84	0.0	0.0	1.00	243.4500	121.7250	87.6420	0.9	0.85	1000	-1000	1000	0.1	0.01	0	0	1;
	1020	0.0	0.0	1.00	243.0000	121.5000	87.4800	0.9	0.85	1000	-1000	1000	0.1	0.01	0	0	1;
	1019	0.0	0.0	1.00	242.2500	121.1250	87.2100	0.9	0.85	1000	-1000	1000	0.1	0.01	0	0	1;
	812	0.0	0.0	1.00	241.3500	120.6750	86.8860	0.9	0.85	1000	-1000	1000	0.1	0.01	0	0	1;
	1190	0.0	0.0	1.00	240.4500	120.2250	86.5620	0.9	0.85	1000	-1000	1000	0.1	0.01	0	0	1;
	352	0.0	0.0	1.00	240.1500	120.0750	86.4540	0.9	0.85	1000	-1000	1000	0.1	0.01	0	0	1;
	2896	0.0	0.0	1.00	240.1500	120.0750	86.4540	0.9	0.85	1000	-1000	1000	0.1	0.01	0	0	1;
	981	0.0	0.0	1.00	238.8000	119.4000	85.9680	0.9	0.85	1000	-1000	1000	0.1	0.01	0	0	1;
	2559	0.0	0.0	1.00	238.3500	119.1750	85.8060	0.9	0.85	1000	-1000	1000	0.1	0.01	0	0	1;
	1024	0.0	0.0	1.00	238.2000	119.1000	85.7520	0.9	0.85	1000	-1000	1000	0.1	0.01	0	0	1;
	1345	0.0	0.0	1.00	237.9000	118.9500	85.6440	0.9	0.85	1000	-1000	1000	0.1	0.01	0	0	1;
	1619	0.0	0.0	1.00	237.6000	118.8000	85.5360	0.9	0.85	1000	-1000	1000	0.1	0.01	0	0	1;
	956	0.0	0.0	1.00	236.4000	118.2000	85.1040	0.9	0.85	1000	-1000	1000	0.1	0.01	0	0	1;
	2558	0.0	0.0	1.00	235.8000	117.9000	84.8880	0.9	0.85	1000	-1000	1000	0.1	0.01	0	0	1;
	270	0.0	0.0	1.00	233.4000	116.7000	84.0240	0.9	0.85	1000	-1000	1000	0.1	0.01	0	0	1;
	947	0.0	0.0	1.00	232.9500	116.4750	83.8620	0.9	0.85	1000	-1000	1000	0.1	0.01	0	0	1;
	590	0.0	0.0	1.00	231.9000	115.9500	83.4840	0.9	0.85	1000	-1000	1000	0.1	0.01	0	0	1;
	1285	0.0	0.0	1.00	231.9000	115.9500	83.4840	0.9	0.85	1000	-1000	1000	0.1	0.01	0	0	1;
	796	0.0	0.0	1.00	230.2500	115.1250	82.8900	0.9	0.85	1000	-1000	1000	0.1	0.01	0	0	1;
	320	0.0	0.0	1.00	229.2000	114.6000	82.5120	0.9	0.85	1000	-1000	1000	0.1	0.01	0	0	1;
	1131	0.0	0.0	1.00	229.2000	114.6000	82.5120	0.9	0.85	1000	-1000	1000	0.1	0.01	0	0	1;
	1034	0.0	0.0	1.00	228.7500	114.3750	82.3500	0.9	0.85	1000	-1000	1000	0.1	0.01	0	0	1;
	480	0.0	0.0	1.00	228.4500	114.2250	82.2420	0.9	0.85	1000	-1000	1000	0.1	0.01	0	0	1;
	747	0.0	0.0	1.00	227.8500	113.9250	82.0260	0.9	0.85	1000	-1000	1000	0.1	0.01	0	0	1;
	966	0.0	0.0	1.00	226.6500	113.3250	81.5940	0.9	0.85	1000	-1000	1000	0.1	0.01	0	0	1;
	638	0.0	0.0	1.00	226.2000	113.1000	81.4320	0.9	0.85	1000	-1000	1000	0.1	0.01	0	0	1;
	20	0.0	0.0	1.00	225.7500	112.8750	81.2700	0.9	0.85	1000	-1000	1000	0.1	0.01	0	0	1;
	1158	0.0	0.0	1.00	225.7500	112.8750	81.2700	0.9	0.85	1000	-1000	1000	0.1	0.01	0	0	1;
	1867	0.0	0.0	1.00	225.1500	112.5750	81.0540	0.9	0.85	1000	-1000	1000	0.1	0.01	0	0	1;
	845	0.0	0.0	1.00	225.0000	112.5000	81.0000	0.9	0.85	1000	-1000	1000	0.1	0.01	0	0	1;
	450	0.0	0.0	1.00	224.4000	112.2000	80.7840	0.9	0.85	1000	-1000	1000	0.1	0.01	0	0	1;
	926	0.0	0.0	1.00	224.4000	112.2000	80.7840	0.9	0.85	1000	-1000	1000	0.1	0.01	0	0	1;
	415	0.0	0.0	1.00	224.2500	112.1250	80.7300	0.9	0.85	1000	-1000	1000	0.1	0.01	0	0	1;
	1563	0.0	0.0	1.00	223.6500	111.8250	80.5140	0.9	0.85	1000	-1000	1000	0.1	0.01	0	0	1;
	928	0.0	0.0	1.00	223.2000	111.6000	80.3520	0.9	0.85	1000	-1000	1000	0.1	0.01	0	0	1;
	1637	0.0	0.0	1.00	223.0500	111.5250	80.2980	0.9	0.85	1000	-1000	1000	0.1	0.01	0	0	1;
	1175	0.0	0.0	1.00	221.1000	110.5500	79.5960	0.9	0.85	1000	-1000	1000	0.1	0.01	0	0	1;
	792	0.0	0.0	1.00	220.2000	110.1000	79.2720	0.9	0.85	1000	-1000	1000	0.1	0.01	0	0	1;
	57	0.0	0.0	1.00	219.6000	109.8000	79.0560	0.9	0.85	1000	-1000	1000	0.1	0.01	0	0	1;
	1163	0.0	0.0	1.00	218.4000	109.2000	78.6240	0.9	0.85	1000	-1000	1000	0.1	0.01	0	0	1;
	474	0.0	0.0	1.00	217.9500	108.9750	78.4620	0.9	0.85	1000	-1000	1000	0.1	0.01	0	0	1;
	2567	0.0	0.0	1.00	217.9500	108.9750	78.4620	0.9	0.85	1000	-1000	1000	0.1	0.01	0	0	1;
	2568	0.0	0.0	1.00	217.6500	108.8250	78.3540	0.9	0.85	1000	-1000	1000	0.1	0.01	0	0	1;
	587	0.0	0.0	1.00	216.7500	108.3750	78.0300	0.9	0.85	1000	-1000	1000	0.1	0.01	0	0	1;
	1855	0.0	0.0	1.00	216.7500	108.3750	78.0300	0.9	0.85	1000	-1000	1000	0.1	0.01	0	0	1;
	608	0.0	0.0	1.00	216.0000	108.0000	77.7600	0.9	0.85	1000	-1000	1000	0.1	0.01	0	0	1;
	122	0.0	0.0	1.00	214.0500	107.0250	77.0580	0.9	0.85	1000	-1000	1000	0.1	0.01	0	0	1;
	1099	0.0	0.0	1.00	213.6000	106.8000	76.8960	0.9	0.85	1000	-1000	1000	0.1	0.01	0	0	1;
	1340	0.0	0.0	1.00	213.4500	106.7250	76.8420	0.9	0.85	1000	-1000	1000	0.1	0.01	0	0	1;
	1267	0.0	0.0	1.00	211.8000	105.9000	76.2480	0.9	0.85	1000	-1000	1000	0.1	0.01	0	0	1;
	70	0.0	0.0	1.00	211.3500	105.6750	76.0860	0.9	0.85	1000	-1000	1000	0.1	0.01	0	0	1;
	1111	0.0	0.0	1.00	210.9000	105.4500	75.9240	0.9	0.85	1000	-1000	1000	0.1	0.01	0	0	1;
	1002	0.0	0.0	1.00	210.4500	105.2250	75.7620	0.9	0.85	1000	-1000	1000	0.1	0.01	0	0	1;
	1206	0.0	0.0	1.00	208.9500	104.4750	75.2220	0.9	0.85	1000	-1000	1000	0.1	0.01	0	0	1;
	132	0.0	0.0	1.00	208.6500	104.3250	75.1140	0.9	0.85	1000	-1000	1000	0.1	0.01	0	0	1;
	457	0.0	0.0	1.00	207.6000	103.8000	74.7360	0.9	0.85	1000	-1000	1000	0.1	0.01	0	0	1;
	522	0.0	0.0	1.00	206.7000	103.3500	74.4120	0.9	0.85	1000	-1000	1000	0.1	0.01	0	0	1;
	153	0.0	0.0	1.00	205.6500	102.8250	74.0340	0.9	0.85	1000	-1000	1000	0.1	0.01	0	0	1;
	1732	0.0	0.0	1.00	205.6500	102.8250	74.0340	0.9	0.85	1000	-1000	1000	0.1	0.01	0	0	1;
	2898	0.0	0.0	1.00	205.6500	102.8250	74.0340	0.9	0.85	1000	-1000	1000	0.1	0.01	0	0	1;
	1645	0.0	0.0	1.00	204.7500	102.3750	73.7100	0.9	0.85	1000	-1000	1000	0.1	0.01	0	0	1;
	657	0.0	0.0	1.00	204.3000	102.1500	73.5480	0.9	0.85	1000	-1000	1000	0.1	0.01	0	0	1;
	652	0.0	0.0	1.00	204.1500	102.0750	73.4940	0.9	0.85	1000	-1000	1000	0.1	0.01	0	0	1;
	428	0.0	0.0	1.00	203.4000	101.7000	73.2240	0.9	0.85	1000	-1000	1000	0.1	0.01	0	0	1;
	1888	0.0	0.0	1.00	202.9500	101.4750	73.0620	0.9	0.85	1000	-1000	1000	0.1	0.01	0	0	1;
	684	0.0	0.0	1.00	202.8000	101.4000	73.0080	0.9	0.85	1000	-1000	1000	0.1	0.01	0	0	1;
	1171	0.0	0.0	1.00	201.0000	100.5000	72.3600	0.9	0.85	1000	-1000	1000	0.1	0.01	0	0	1;
	961	0.0	0.0	1.00	200.7000	100.3500	72.2520	0.9	0.85	1000	-1000	1000	0.1	0.01	0	0	1;
	1762	0.0	0.0	1.00	200.5500	100.2750	72.1980	0.9	0.85	1000	-1000	1000	0.1	0.01	0	0	1;
	2776	0.0	0.0	1.00	199.9500	99.9750	71.9820	0.9	0.85	1000	-1000	1000	0.1	0.01	0	0	1;
	1172	0.0	0.0	1.00	199.6500	99.8250	71.8740	0.9	0.85	1000	-1000	1000	0.1	0.01	0	0	1;
	433	0.0	0.0	1.00	199.3500	99.6750	71.7660	0.9	0.85	1000	-1000	1000	0.1	0.01	0	0	1;
	1471	0.0	0.0	1.00	196.8000	98.4000	70.8480	0.9	0.85	1000	-1000	1000	0.1	0.01	0	0	1;
	539	0.0	0.0	1.00	194.2500	97.1250	69.9300	0.9	0.85	1000	-1000	1000	0.1	0.01	0	0	1;
	2928	0.0	0.0	1.00	193.8000	96.9000	69.7680	0.9	0.85	1000	-1000	1000	0.1	0.01	0	0	1;
	580	0.0	0.0	1.00	193.6500	96.8250	69.7140	0.9	0.85	1000	-1000	1000	0.1	0.01	0	0	1;
	1708	0.0	0.0	1.00	193.3500	96.6750	69.6060	0.9	0.85	1000	-1000	1000	0.1	0.01	0	0	1;
	1028	0.0	0.0	1.00	193.2000	96.6000	69.5520	0.9	0.85	1000	-1000	1000	0.1	0.01	0	0	1;
	1828	0.0	0.0	1.00	193.2000	96.6000	69.5520	0.9	0.85	1000	-1000	1000	0.1	0.01	0	0	1;
	1496	0.0	0.0	1.00	193.0500	96.5250	69.4980	0.9	0.85	1000	-1000	1000	0.1	0.01	0	0	1;
	2952	0.0	0.0	1.00	191.2500	95.6250	68.8500	0.9	0.85	1000	-1000	1000	0.1	0.01	0	0	1;
	1636	0.0	0.0	1.00	191.2500	95.6250	68.8500	0.9	0.85	1000	-1000	1000	0.1	0.01	0	0	1;
	1115	0.0	0.0	1.00	190.8000	95.4000	68.6880	0.9	0.85	1000	-1000	1000	0.1	0.01	0	0	1;
	430	0.0	0.0	1.00	190.3500	95.1750	68.5260	0.9	0.85	1000	-1000	1000	0.1	0.01	0	0	1;
	60	0.0	0.0	1.00	187.8000	93.9000	67.6080	0.9	0.85	1000	-1000	1000	0.1	0.01	0	0	1;
	1727	0.0	0.0	1.00	187.5000	93.7500	67.5000	0.9	0.85	1000	-1000	1000	0.1	0.01	0	0	1;
	1208	0.0	0.0	1.00	187.0500	93.5250	67.3380	0.9	0.85	1000	-1000	1000	0.1	0.01	0	0	1;
	2664	0.0	0.0	1.00	186.9000	93.4500	67.2840	0.9	0.85	1000	-1000	1000	0.1	0.01	0	0	1;
	1101	0.0	0.0	1.00	185.8500	92.9250	66.9060	0.9	0.85	1000	-1000	1000	0.1	0.01	0	0	1;
	1284	0.0	0.0	1.00	185.2500	92.6250	66.6900	0.9	0.85	1000	-1000	1000	0.1	0.01	0	0	1;
	2856	0.0	0.0	1.00	184.0500	92.0250	66.2580	0.9	0.85	1000	-1000	1000	0.1	0.01	0	0	1;
	1244	0.0	0.0	1.00	183.7500	91.8750	66.1500	0.9	0.85	1000	-1000	1000	0.1	0.01	0	0	1;
	1032	0.0	0.0	1.00	183.4500	91.7250	66.0420	0.9	0.85	1000	-1000	1000	0.1	0.01	0	0	1;
	1831	0.0	0.0	1.00	183.0000	91.5000	65.8800	0.9	0.85	1000	-1000	1000	0.1	0.01	0	0	1;
	410	0.0	0.0	1.00	181.6500	90.8250	65.3940	0.9	0.85	1000	-1000	1000	0.1	0.01	0	0	1;
	730	0.0	0.0	1.00	181.2000	90.6000	65.2320	0.9	0.85	1000	-1000	1000	0.1	0.01	0	0	1;
	175	0.0	0.0	1.00	181.0500	90.5250	65.1780	0.9	0.85	1000	-1000	1000	0.1	0.01	0	0	1;
	1845	0.0	0.0	1.00	180.9000	90.4500	65.1240	0.9	0.85	1000	-1000	1000	0.1	0.01	0	0	1;
	827	0.0	0.0	1.00	180.6000	90.3000	65.0160	0.9	0.85	1000	-1000	1000	0.1	0.01	0	0	1;
	1401	0.0	0.0	1.00	180.6000	90.3000	65.0160	0.9	0.85	1000	-1000	1000	0.1	0.01	0	0	1;
	1779	0.0	0.0	1.00	179.2500	89.6250	64.5300	0.9	0.85	1000	-1000	1000	0.1	0.01	0	0	1;
	167	0.0	0.0	1.00	178.9500	89.4750	64.4220	0.9	0.85	1000	-1000	1000	0.1	0.01	0	0	1;
	1055	0.0	0.0	1.00	177.4500	88.7250	63.8820	0.9	0.85	1000	-1000	1000	0.1	0.01	0	0	1;
	676	0.0	0.0	1.00	177.1500	88.5750	63.7740	0.9	0.85	1000	-1000	1000	0.1	0.01	0	0	1;
...
];

%% branch data
%	fbus	tbus	r	x	b	rateA	rateB	rateC	ratio	angle	status	angmin	angmax
mpc.branch = [
	639	 1	 0.005799	 0.010615	 0.0075	 2441	 2441	 2441	 0.0	 0.0	 1	 -30.0	 30.0;
	2771	 2	 0.002607	 0.017462	 0.0324	 540.0	 540.0	 540.0	 0.0	 0.0	 1	 -30.0	 30.0;
	2575	 3	 2.1e-05	 0.000125	 0.1386	 737.0	 737.0	 737.0	 0.0	 0.0	 1	 -30.0	 30.0;
	875	 3	 0.000145	 0.001877	 0.0635	 2487.0	 2487.0	 2487.0	 0.0	 0.0	 1	 -30.0	 30.0;
	1710	 3	 0.000319	 0.003234	 0.0838	 1841.0	 1841.0	 1841.0	 0.0	 0.0	 1	 -30.0	 30.0;
	46	 3	 2.1e-05	 0.000125	 0.1386	 737.0	 737.0	 737.0	 0.0	 0.0	 1	 -30.0	 30.0;
	1073	 4	 0.037541	 0.100529	 0.0011	 284	 284	 284	 0.0	 0.0	 1	 -30.0	 30.0;
	1533	 4	 0.090199	 0.211388	 0.0023	 133	 133	 133	 0.0	 0.0	 1	 -30.0	 30.0;
	1658	 4	 0.09801	 0.267574	 0.0	 107	 107	 107	 0.0	 0.0	 1	 -30.0	 30.0;
	1370	 5	 0.009383	 0.019753	 0.0	 1194	 1194	 1194	 0.0	 0.0	 1	 -30.0	 30.0;
	1370	 6	 0.001975	 0.004444	 0.0	 5369	 5369	 5369	 0.0	 0.0	 1	 -30.0	 30.0;
...